@<TRIPOS>MOLECULE
TA9
   50    53     1     0     0
SMALL
bcc


@<TRIPOS>ATOM
      1 CAK          0.0000     0.0000     0.0000 ca         1 TA9      -0.117600
      2 CAQ          1.4820     0.0000     0.0000 c          1 TA9       0.631300
      3 OBB          2.2050     0.0010    -0.9760 o          1 TA9      -0.459100
      4 CAN          1.9170     0.0000     1.4170 ca         1 TA9      -0.181600
      5 CAS          3.1730    -0.0010     2.0110 ca         1 TA9      -0.022000
      6 CAH          3.2850    -0.0020     3.3910 ca         1 TA9      -0.111000
      7 CAC          2.1510    -0.0030     4.1800 ca         1 TA9      -0.080000
      8 CAR          0.8920    -0.0020     3.6010 ca         1 TA9      -0.084000
      9 CAM          0.7640    -0.0010     2.2190 cp         1 TA9      -0.021000
     10 CAL         -0.4310     0.0000     1.3340 cp         1 TA9      -0.019000
     11 CAO         -1.7920     0.0000     1.6150 ca         1 TA9      -0.070000
     12 CAT         -2.7190    -0.0000     0.5860 ca         1 TA9      -0.085000
     13 CAP         -2.3050    -0.0010    -0.7310 ca         1 TA9      -0.104000
     14 CAJ         -0.9430    -0.0050    -1.0370 ca         1 TA9      -0.076600
     15 CAI         -0.4970    -0.0110    -2.4490 c          1 TA9       0.572700
     16 OAZ          0.6900    -0.0120    -2.7110 o          1 TA9      -0.598100
     17 NAV         -1.4060    -0.0150    -3.4420 ns         1 TA9      -0.211900
     18 CAD         -0.9650    -0.0220    -4.8400 c3         1 TA9       0.056000
     19 CAA         -2.1870    -0.0250    -5.7600 c3         1 TA9       0.094500
     20 NAW         -3.0550     1.1110    -5.4260 n7         1 TA9      -0.558200
     21 CAE         -4.2630     1.1190    -6.2610 c3         1 TA9       0.108500
     22 CAU         -5.1590     2.2900    -5.8510 c3         1 TA9       0.005900
     23 CAG         -3.8670     1.2720    -7.7320 c3         1 TA9       0.177100
     24 OAX         -3.1720     2.5070    -7.9130 oh         1 TA9      -0.555800
     25 CAF         -2.9550     0.1080    -8.1320 c3         1 TA9       0.147100
     26 OAY         -2.5370     0.2750    -9.4880 oh         1 TA9      -0.575800
     27 CAB         -1.7290     0.0920    -7.2150 c3         1 TA9       0.189100
     28 OBA         -0.9000    -1.0230    -7.5470 oh         1 TA9      -0.589800
     29 HAS          4.0650    -0.0010     1.3950 ha         1 TA9       0.114000
     30 HAH          4.2650    -0.0020     3.8540 ha         1 TA9       0.107000
     31 HAC          2.2470    -0.0030     5.2600 ha         1 TA9       0.104000
     32 HAR          0.0080    -0.0030     4.2260 ha         1 TA9       0.104000
     33 HAO         -2.1300     0.0000     2.6440 ha         1 TA9       0.106000
     34 HAT         -3.7770     0.0030     0.8160 ha         1 TA9       0.105000
     35 HAP         -3.0380    -0.0010    -1.5280 ha         1 TA9       0.103000
     36 HAV         -2.3820    -0.0640    -3.2260 hn         1 TA9       0.172500
     37 HAD1        -0.3700    -0.9070    -5.0270 h1         1 TA9       0.041200
     38 HAD2        -0.3690     0.8620    -5.0350 h1         1 TA9       0.041200
     39 HAA         -2.7390    -0.9490    -5.6310 h1         1 TA9       0.011700
     40 HAW         -3.3170     1.0580    -4.4610 hn         1 TA9       0.251800
     41 HAB         -1.1720     1.0130    -7.3440 h1         1 TA9       0.044700
     42 HAE         -4.7980     0.1870    -6.1280 h1         1 TA9       0.004700
     43 HAU1        -4.5720     3.2000    -5.8200 hc         1 TA9       0.010367
     44 HAU2        -5.5790     2.0980    -4.8710 hc         1 TA9       0.010367
     45 HAU3        -5.9600     2.4020    -6.5720 hc         1 TA9       0.010367
     46 HAG         -4.7580     1.2590    -8.3470 h1         1 TA9       0.002700
     47 HAX         -3.5600     2.9830    -8.6290 ho         1 TA9       0.387000
     48 HAF         -3.4950    -0.8250    -8.0270 h1         1 TA9       0.010700
     49 HAY         -2.9660    -0.3660   -10.0310 ho         1 TA9       0.389000
     50 HBA         -0.1290    -0.7200    -7.9960 ho         1 TA9       0.403000
@<TRIPOS>BOND
     1     1     2 1   
     2     1    10 ar  
     3     1    14 ar  
     4     2     3 2   
     5     2     4 1   
     6     4     5 ar  
     7     4     9 ar  
     8     5     6 ar  
     9     5    29 1   
    10     6     7 ar  
    11     6    30 1   
    12     7     8 ar  
    13     7    31 1   
    14     8     9 ar  
    15     8    32 1   
    16     9    10 1   
    17    10    11 ar  
    18    11    12 ar  
    19    11    33 1   
    20    12    13 ar  
    21    12    34 1   
    22    13    14 ar  
    23    13    35 1   
    24    14    15 1   
    25    15    16 2   
    26    15    17 1   
    27    17    18 1   
    28    17    36 1   
    29    18    19 1   
    30    18    37 1   
    31    18    38 1   
    32    19    20 1   
    33    19    27 1   
    34    19    39 1   
    35    20    21 1   
    36    20    40 1   
    37    21    22 1   
    38    21    23 1   
    39    21    42 1   
    40    22    43 1   
    41    22    44 1   
    42    22    45 1   
    43    23    24 1   
    44    23    25 1   
    45    23    46 1   
    46    24    47 1   
    47    25    26 1   
    48    25    27 1   
    49    25    48 1   
    50    26    49 1   
    51    27    28 1   
    52    27    41 1   
    53    28    50 1   
@<TRIPOS>SUBSTRUCTURE
     1 TA9         1 TEMP              0 ****  ****    0 ROOT
