@<TRIPOS>MOLECULE
TAA
   57    58     1     0     0
SMALL
bcc


@<TRIPOS>ATOM
      1 P1           0.0000     0.0000     0.0000 p5         1 TAA       0.627600
      2 O1           1.6100     0.0000     0.0000 os         1 TAA      -0.467200
      3 O2          -0.5370     1.3140     0.7580 o          1 TAA      -0.635000
      4 O3          -0.4930    -1.2080     0.6970 o          1 TAA      -0.635000
      5 C1          -0.6070    -0.0000    -1.7180 c3         1 TAA      -0.001300
      6 C2          -2.1140    -0.0000    -1.7180 ca         1 TAA       0.017700
      7 C3          -2.8040     1.1980    -1.7190 ca         1 TAA      -0.083000
      8 C7          -2.8040    -1.1990    -1.7230 ca         1 TAA      -0.083000
      9 C4          -4.1850     1.2010    -1.7190 ca         1 TAA      -0.101500
     10 C5          -4.8810    -0.0000    -1.7190 ca         1 TAA      -0.169400
     11 C6          -4.1860    -1.2020    -1.7180 ca         1 TAA      -0.101500
     12 N1          -6.2800     0.0000    -1.7210 ns         1 TAA       0.043900
     13 C8          -6.9540     0.9750    -2.3610 c          1 TAA       0.480100
     14 O4          -6.3510     1.7950    -3.0220 o          1 TAA      -0.587100
     15 C9          -8.4560     1.0460    -2.2600 c3         1 TAA       0.496900
     16 F1          -8.9230     2.1340    -3.0050 f          1 TAA      -0.201967
     17 F2          -9.0130    -0.1350    -2.7610 f          1 TAA      -0.201967
     18 F3          -8.8250     1.2060    -0.9200 f          1 TAA      -0.201967
     19 C10          2.0230     0.0000     1.3670 c3         1 TAA       0.262400
     20 C11          2.8610    -1.2490     1.6470 c3         1 TAA       0.074500
     21 C12          3.3030    -1.2490     3.1110 c3         1 TAA       0.209400
     22 O5           4.0860    -0.0820     3.3720 oh         1 TAA      -0.588800
     23 N2           2.0560    -2.4490     1.3780 n7         1 TAA      -0.505200
     24 C13          2.2700    -2.7940    -0.0330 c3         1 TAA       0.297300
     25 O6           3.3830    -3.6830    -0.1420 oh         1 TAA      -0.624800
     26 C14          1.0170    -3.4740    -0.5870 c3         1 TAA       0.108100
     27 Cl1          1.2800    -3.8970    -2.3200 cl         1 TAA      -0.150900
     28 Cl2          0.6810    -4.9740     0.3540 cl         1 TAA      -0.150900
     29 C15          2.8490     1.2300     1.6420 ca         1 TAA       0.037700
     30 C16          3.6060     1.7910     0.6270 ca         1 TAA      -0.099500
     31 C20          2.8400     1.7950     2.9070 ca         1 TAA      -0.099500
     32 C17          4.3640     2.9150     0.8680 ca         1 TAA       0.002500
     33 C18          4.3680     3.4930     2.1490 ca         1 TAA      -0.548200
     34 C19          3.5950     2.9160     3.1710 ca         1 TAA       0.002500
     35 N3           5.1040     4.5910     2.3950 no         1 TAA       1.116200
     36 O7           5.1040     5.0880     3.5050 o          1 TAA      -0.510000
     37 O8           5.7720     5.0870     1.5060 o          1 TAA      -0.510000
     38 HC11        -0.2460    -0.8850    -2.2290 hc         1 TAA       0.025200
     39 HC12        -0.2460     0.8840    -2.2290 hc         1 TAA       0.025200
     40 HC3         -2.2600     2.1350    -1.7180 ha         1 TAA       0.115000
     41 HC7         -2.2610    -2.1360    -1.7230 ha         1 TAA       0.115000
     42 HC4         -4.7250     2.1400    -1.7190 ha         1 TAA       0.107000
     43 HC6         -4.7260    -2.1410    -1.7200 ha         1 TAA       0.107000
     44 HN1         -6.7800    -0.7200    -1.2380 hn         1 TAA       0.161500
     45 H10          1.1500     0.0000     2.0080 h1         1 TAA       0.079700
     46 H11          3.7340    -1.2490     1.0060 h1         1 TAA       0.021700
     47 H121         3.8970    -2.1340     3.3090 h1         1 TAA      -0.002800
     48 H122         2.4300    -1.2490     3.7520 h1         1 TAA      -0.002800
     49 HO5          4.7780    -0.2960     3.9760 ho         1 TAA       0.376000
     50 HN2          2.3740    -3.2000     1.9580 hn         1 TAA       0.258800
     51 H13          2.4720    -1.8920    -0.5980 h2         1 TAA       0.063700
     52 HO6          3.7750    -3.5920    -0.9950 ho         1 TAA       0.399000
     53 H14          0.1730    -2.7990    -0.5040 h2         1 TAA       0.136700
     54 H16          3.6020     1.3440    -0.3590 ha         1 TAA       0.124500
     55 H20          2.2440     1.3480     3.6940 ha         1 TAA       0.124500
     56 H17          4.9560     3.3520     0.0720 ha         1 TAA       0.122500
     57 H19          3.5890     3.3550     4.1610 ha         1 TAA       0.122500
@<TRIPOS>BOND
     1     1     2 1   
     2     1     3 1   
     3     1     4 1   
     4     1     5 1   
     5     2    19 1   
     6     5     6 1   
     7     5    38 1   
     8     5    39 1   
     9     6     7 ar  
    10     6     8 ar  
    11     7     9 ar  
    12     7    40 1   
    13     8    11 ar  
    14     8    41 1   
    15     9    10 ar  
    16     9    42 1   
    17    10    11 ar  
    18    10    12 1   
    19    11    43 1   
    20    12    13 1   
    21    12    44 1   
    22    13    14 2   
    23    13    15 1   
    24    15    16 1   
    25    15    17 1   
    26    15    18 1   
    27    19    20 1   
    28    19    29 1   
    29    19    45 1   
    30    20    21 1   
    31    20    23 1   
    32    20    46 1   
    33    21    22 1   
    34    21    47 1   
    35    21    48 1   
    36    22    49 1   
    37    23    24 1   
    38    23    50 1   
    39    24    25 1   
    40    24    26 1   
    41    24    51 1   
    42    25    52 1   
    43    26    27 1   
    44    26    28 1   
    45    26    53 1   
    46    29    30 ar  
    47    29    31 ar  
    48    30    32 ar  
    49    30    54 1   
    50    31    34 ar  
    51    31    55 1   
    52    32    33 ar  
    53    32    56 1   
    54    33    34 ar  
    55    33    35 1   
    56    34    57 1   
    57    35    36 1   
    58    35    37 1   
@<TRIPOS>SUBSTRUCTURE
     1 TAA         1 TEMP              0 ****  ****    0 ROOT
