@<TRIPOS>MOLECULE
molecule
   59    61     1     0     0
SMALL
bcc


@<TRIPOS>ATOM
      1 C1'          0.0000     0.0000     0.0000 ca         1 TAB       0.159400
      2 C2'          1.3970     0.0000     0.0000 ca         1 TAB       0.048400
      3 C3'          2.0900     0.0000     1.1960 ca         1 TAB      -0.119000
      4 C4'          1.4070    -0.0000     2.3960 ca         1 TAB      -0.117000
      5 C5'          0.0120    -0.0000     2.4090 cp         1 TAB      -0.012000
      6 C6'         -0.6930    -0.0060     1.2090 ca         1 TAB      -0.144000
      7 Cl8          2.2640     0.0010    -1.5030 cl         1 TAB      -0.090400
      8 N8'         -0.6880    -0.0000    -1.1870 ne         1 TAB      -0.336400
      9 C9'         -0.7180    -0.0000     3.6990 cp         1 TAB      -0.382600
     10 C10         -0.5580    -1.0390     4.6110 ca         1 TAB       0.523600
     11 C11          0.3700    -2.1860     4.3060 c3         1 TAB      -0.139700
     12 N17         -1.2260    -1.0040     5.7530 nb         1 TAB      -0.789000
     13 C14         -2.0440    -0.0010     6.0350 ca         1 TAB       0.977900
     14 N22         -2.7230    -0.0060     7.2400 nv         1 TAB      -1.058500
     15 N15         -2.2320     1.0080     5.1960 nb         1 TAB      -0.828000
     16 C15         -1.6000     1.0460     4.0300 ca         1 TAB       0.754200
     17 N20         -1.7990     2.1010     3.1560 nv         1 TAB      -0.999500
     18 N18         -2.6790    -0.0010    -2.3970 nh         1 TAB      -0.528700
     19 C19         -1.9490     0.0000    -3.6670 c3         1 TAB       0.271100
     20 C20         -0.4050    -3.2910     3.5860 c3         1 TAB      -0.083100
     21 C21         -4.1440    -0.0010    -2.3940 c3         1 TAB       0.265800
     22 C22         -4.6540     1.4400    -2.3930 c3         1 TAB       0.127400
     23 O23         -4.1730     2.1260    -3.5800 os         1 TAB      -0.444900
     24 C24         -4.4980     3.4100    -3.7910 c          1 TAB       0.635100
     25 C25         -3.9990     4.1210    -5.0220 c3         1 TAB      -0.137100
     26 O26         -5.1930     3.9970    -2.9940 o          1 TAB      -0.550000
     27 C27         -1.0820    -1.2290    -3.7480 ca         1 TAB      -0.126300
     28 C28         -1.5830    -2.3920    -4.3020 ca         1 TAB      -0.103000
     29 C29          0.2150    -1.1940    -3.2730 ca         1 TAB      -0.103000
     30 C30          1.0090    -2.3230    -3.3440 ca         1 TAB      -0.140500
     31 C31          0.5090    -3.4860    -3.8980 ca         1 TAB      -0.120000
     32 C32         -0.7870    -3.5210    -4.3770 ca         1 TAB      -0.140500
     33 N65         -1.9770    -0.0010    -1.1850 n2         1 TAB      -0.015700
     34 H3'1         3.1730    -0.0000     1.1920 ha         1 TAB       0.149000
     35 H4'1         1.9560     0.0020     3.3300 ha         1 TAB       0.145000
     36 H6'1        -1.7770    -0.0060     1.2150 ha         1 TAB       0.161000
     37 H111         1.1770    -1.8390     3.6720 hc         1 TAB       0.062200
     38 H112         0.7790    -2.5760     5.2300 hc         1 TAB       0.062200
     39 HN21        -2.2710     0.3230     8.0700 hn         1 TAB       0.444800
     40 HN22        -3.6780    -0.3050     7.2760 hn         1 TAB       0.444800
     41 HN11        -1.2480     2.1720     2.3230 hn         1 TAB       0.446800
     42 HN12        -2.4610     2.8180     3.3800 hn         1 TAB       0.446800
     43 H191        -2.6540     0.0000    -4.4890 h1         1 TAB       0.060200
     44 H192        -1.3260     0.8850    -3.7240 h1         1 TAB       0.060200
     45 H201        -0.6650    -4.0690     4.2930 hc         1 TAB       0.040033
     46 H202         0.2090    -3.7090     2.7980 hc         1 TAB       0.040033
     47 H203        -1.3100    -2.8770     3.1570 hc         1 TAB       0.040033
     48 H211        -4.5040    -0.5120    -1.5090 h1         1 TAB       0.070700
     49 H212        -4.5060    -0.5120    -3.2780 h1         1 TAB       0.070700
     50 H221        -5.7380     1.4400    -2.3910 h1         1 TAB       0.058700
     51 H222        -4.2920     1.9510    -1.5090 h1         1 TAB       0.058700
     52 H251        -2.9510     4.3660    -4.8970 hc         1 TAB       0.070700
     53 H252        -4.5680     5.0310    -5.1700 hc         1 TAB       0.070700
     54 H253        -4.1180     3.4760    -5.8850 hc         1 TAB       0.070700
     55 H281        -2.5990    -2.4200    -4.6770 ha         1 TAB       0.145000
     56 H291         0.6080    -0.2830    -2.8390 ha         1 TAB       0.145000
     57 H301         2.0260    -2.2940    -2.9700 ha         1 TAB       0.128500
     58 H311         1.1310    -4.3700    -3.9550 ha         1 TAB       0.126000
     59 H321        -1.1800    -4.4330    -4.8110 ha         1 TAB       0.128500
@<TRIPOS>BOND
     1     1     2 ar
     2     1     6 ar
     3     1     8 1
     4     2     3 ar
     5     2     7 1
     6     3     4 ar
     7     3    34 1
     8     4     5 ar
     9     4    35 1
    10     5     6 ar
    11     5     9 1
    12     6    36 1
    13     8    33 2
    14     9    10 ar
    15     9    16 ar
    16    10    11 1
    17    10    12 ar
    18    11    20 1
    19    11    37 1
    20    11    38 1
    21    12    13 ar
    22    13    14 1
    23    13    15 ar
    24    14    39 1
    25    14    40 1
    26    15    16 ar
    27    16    17 1
    28    17    41 1
    29    17    42 1
    30    18    19 1
    31    18    21 1
    32    18    33 1
    33    19    27 1
    34    19    43 1
    35    19    44 1
    36    20    45 1
    37    20    46 1
    38    20    47 1
    39    21    22 1
    40    21    48 1
    41    21    49 1
    42    22    23 1
    43    22    50 1
    44    22    51 1
    45    23    24 1
    46    24    25 1
    47    24    26 2
    48    25    52 1
    49    25    53 1
    50    25    54 1
    51    27    28 ar
    52    27    29 ar
    53    28    32 ar
    54    28    55 1
    55    29    30 ar
    56    29    56 1
    57    30    31 ar
    58    30    57 1
    59    31    32 ar
    60    31    58 1
    61    32    59 1
@<TRIPOS>SUBSTRUCTURE
     1 TAB         1 TEMP              0 ****  ****    0 ROOT
