@<TRIPOS>MOLECULE
TAC
   57    60     1     0     0
SMALL
bcc


@<TRIPOS>ATOM
      1 C1           1.5450     0.0000     0.0000 c          1 TAC       0.659300
      2 O1           2.0930    -0.5410    -0.9840 o          1 TAC      -0.625100
      3 C2           2.2010     1.0250     0.7540 ce         1 TAC      -0.492400
      4 C21          3.5010     1.4800     0.4430 c          1 TAC       0.385300
      5 O21          3.9490     2.5590     0.9350 o          1 TAC      -0.517100
      6 N21          4.3010     0.8300    -0.4660 nz         1 TAC       0.208600
      7 C3           1.4360     1.7140     1.6980 c2         1 TAC       0.464900
      8 O3           1.7520     3.0110     2.0360 oh         1 TAC      -0.447100
      9 C4           0.0920     1.2550     2.0700 c3         1 TAC       0.070700
     10 N4          -0.6680     2.2550     2.8810 n3         1 TAC      -0.520600
     11 C42         -1.8060     1.6380     3.6810 c3         1 TAC       0.180600
     12 C43         -1.3150     3.1930     1.8790 c3         1 TAC       0.180600
     13 C41         -0.5240     0.0000     1.4820 c3         1 TAC      -0.016700
     14 C5           0.1040    -1.2980     2.0850 c3         1 TAC      -0.021400
     15 C51         -0.5440    -2.5240     1.4650 c3         1 TAC       0.016500
     16 C6           0.0110    -3.8900     1.8560 c3         1 TAC       0.245100
     17 C62          0.0960    -4.1600     3.3410 c3         1 TAC      -0.042100
     18 O6           1.3500    -3.9050     1.3240 oh         1 TAC      -0.603800
     19 C61         -0.7990    -5.0160     1.1940 ca         1 TAC      -0.058300
     20 C7          -0.7660    -6.3070     1.7200 ca         1 TAC      -0.163000
     21 C8          -1.4820    -7.3460     1.1130 ca         1 TAC      -0.011000
     22 C9          -2.1800    -7.1270    -0.0380 ca         1 TAC      -0.199000
     23 C10         -2.1710    -5.8630    -0.6330 ca         1 TAC       0.233100
     24 O10         -2.8990    -5.6980    -1.8780 oh         1 TAC      -0.463100
     25 C1A         -1.4820    -4.7850    -0.0200 ca         1 TAC      -0.187600
     26 C11         -1.3710    -3.5280    -0.6630 c          1 TAC       0.617900
     27 O11         -1.9050    -3.3640    -1.7750 o          1 TAC      -0.531100
     28 C1B         -0.8100    -2.4250    -0.0390 ce         1 TAC      -0.182400
     29 C12         -0.7170    -1.1800    -0.6460 c2         1 TAC       0.112900
     30 O12         -1.2230    -0.9600    -1.9440 oh         1 TAC      -0.470100
     31 C1C          0.0000     0.0000     0.0000 c3         1 TAC       0.120000
     32 O1C         -0.4440     1.1890    -0.6580 oh         1 TAC      -0.560800
     33 HN21         3.9170     0.9350    -1.3840 hn         1 TAC       0.249467
     34 HN22         4.3480    -0.1430    -0.2340 hn         1 TAC       0.249467
     35 HO3          2.3510     3.0090     2.7640 ho         1 TAC       0.453000
     36 H4           0.4450     0.7160     2.9400 h1         1 TAC       0.054700
     37 H421        -2.2490     2.3920     4.3200 h1         1 TAC       0.017700
     38 H422        -2.5570     1.2530     3.0020 h1         1 TAC       0.017700
     39 H423        -1.4210     0.8290     4.2900 h1         1 TAC       0.017700
     40 H431        -0.5740     3.5200     1.1600 h1         1 TAC       0.017700
     41 H432        -1.7190     4.0540     2.3980 h1         1 TAC       0.017700
     42 H433        -2.1140     2.6750     1.3620 h1         1 TAC       0.017700
     43 H41         -1.6060     0.0030     1.5350 hc         1 TAC       0.089700
     44 H51A        -0.0590    -1.3100     3.1560 hc         1 TAC       0.027700
     45 H52          1.1670    -1.3110     1.8780 hc         1 TAC       0.027700
     46 H51         -1.5360    -2.5230     1.8990 hc         1 TAC       0.035700
     47 H621         0.6910    -3.3890     3.8150 hc         1 TAC       0.023367
     48 H622        -0.9010    -4.1590     3.7660 hc         1 TAC       0.023367
     49 H623         0.5570    -5.1260     3.5070 hc         1 TAC       0.023367
     50 HO6          1.7970    -4.6810     1.6180 ho         1 TAC       0.406000
     51 H7          -0.8560    -6.3170     2.8000 ha         1 TAC       0.118000
     52 H8          -2.0370    -7.9400     1.8280 ha         1 TAC       0.105000
     53 H9          -3.1700    -7.5660    -0.0120 ha         1 TAC       0.129000
     54 HO1         -2.8620    -6.5000    -2.3720 ho         1 TAC       0.408000
     55 HO2         -0.6140    -1.2970    -2.5800 ho         1 TAC       0.419000
     56 HOC         -0.2980     1.1080    -1.5860 ho         1 TAC       0.422000
     57 H213         5.2230     1.2180    -0.4360 hn         1 TAC       0.249467
@<TRIPOS>BOND
     1     1     2 2   
     2     1     3 1   
     3     1    31 1   
     4     3     4 1   
     5     3     7 2   
     6     4     5 2   
     7     4     6 1   
     8     6    33 1   
     9     6    34 1   
    10     6    57 1   
    11     7     8 1   
    12     7     9 1   
    13     8    35 1   
    14     9    10 1   
    15     9    13 1   
    16     9    36 1   
    17    10    11 1   
    18    10    12 1   
    19    11    37 1   
    20    11    38 1   
    21    11    39 1   
    22    12    40 1   
    23    12    41 1   
    24    12    42 1   
    25    13    14 1   
    26    13    31 1   
    27    13    43 1   
    28    14    15 1   
    29    14    44 1   
    30    14    45 1   
    31    15    16 1   
    32    15    28 1   
    33    15    46 1   
    34    16    17 1   
    35    16    18 1   
    36    16    19 1   
    37    17    47 1   
    38    17    48 1   
    39    17    49 1   
    40    18    50 1   
    41    19    20 ar  
    42    19    25 ar  
    43    20    21 ar  
    44    20    51 1   
    45    21    22 ar  
    46    21    52 1   
    47    22    23 ar  
    48    22    53 1   
    49    23    24 1   
    50    23    25 ar  
    51    24    54 1   
    52    25    26 1   
    53    26    27 2   
    54    26    28 1   
    55    28    29 2   
    56    29    30 1   
    57    29    31 1   
    58    30    55 1   
    59    31    32 1   
    60    32    56 1   
@<TRIPOS>SUBSTRUCTURE
     1 TAC         1 TEMP              0 ****  ****    0 ROOT
