@<TRIPOS>MOLECULE
TAE
   32    34     1     0     0
SMALL
bcc


@<TRIPOS>ATOM
      1 N1           0.0000     0.0000     0.0000 n          1 TAE       0.182000
      2 C2           1.3460     0.0000     0.0000 c2         1 TAE       0.176000
      3 O2           1.9450     0.0010    -1.0570 o          1 TAE      -0.463000
      4 N3           2.0370     0.0000     1.1540 ns         1 TAE       0.073000
      5 C4           1.3880     0.0010     2.3360 c2         1 TAE       0.266000
      6 O4           2.0130     0.0010     3.3810 o          1 TAE      -0.477000
      7 C5          -0.0280    -0.0000     2.3500 c2         1 TAE      -0.323000
      8 C6          -0.6970    -0.0000     1.1780 c2         1 TAE      -0.101000
      9 PA          -3.6710    -4.0050    -1.3210 p5         1 TAE       1.280000
     10 PB          -5.0230    -6.6420    -1.3700 p5         1 TAE       0.990500
     11 C1'         -0.7250     0.0060    -1.2720 DU         1 TAE      -0.151000
     12 O1A         -4.8950    -3.1740    -1.2860 o          1 TAE      -0.651000
     13 O1B         -5.2330    -7.7110    -2.5560 o          1 TAE      -0.739500
     14 C2'         -0.9740    -1.4130    -1.7150 c2         1 TAE      -0.189000
     15 O2A         -3.0600    -4.1240     0.1650 o          1 TAE      -0.651000
     16 O2B         -4.3780    -7.3790    -0.0920 o          1 TAE      -0.739500
     17 C3'         -2.1940    -1.8120    -1.9790 c2         1 TAE      -0.351000
     18 O3A         -4.0350    -5.4740    -1.8710 os         1 TAE      -0.921000
     19 O3B         -6.3290    -6.0570    -0.9950 o          1 TAE      -0.739500
     20 C4'         -2.4430    -3.2310    -2.4230 DU         1 TAE      -0.378000
     21 C5M         -0.7780     0.0010     3.6570 c3         1 TAE      -0.002000
     22 HN3          3.0380    -0.0000     1.1350 hn         1 TAE       0.090000
     23 H6          -1.7800    -0.0010     1.1690 h4         1 TAE       0.153000
     24 H1'         -1.6730     0.5160    -1.1460 ha         1 TAE       0.070000
     25 H1'A        -0.1360     0.5200    -2.0220 ha         1 TAE       0.070000
     26 H2'         -1.1550    -1.0450    -0.7130 DU         1 TAE       0.043000
     27 H3'         -2.2150    -2.6670    -1.3140 DU         1 TAE       0.239000
     28 H4'         -1.5160    -3.7900    -2.3810 ha         1 TAE       0.070500
     29 H4'A        -2.8190    -3.2300    -3.4390 ha         1 TAE       0.070500
     30 H5M         -0.4170     0.8100     4.2800 hc         1 TAE       0.034333
     31 H5MA        -1.8360     0.1360     3.4670 hc         1 TAE       0.034333
     32 H5MB        -0.6200    -0.9440     4.1640 hc         1 TAE       0.034333
@<TRIPOS>BOND
     1     1     2 1   
     2     1     8 1   
     3     1    11 1   
     4     2     3 1   
     5     2     4 1   
     6     4     5 1   
     7     4    22 1   
     8     5     6 1   
     9     5     7 1   
    10     7     8 1   
    11     7    21 1   
    12     8    23 1   
    13     9    12 1   
    14     9    15 1   
    15     9    18 1   
    16     9    20 1   
    17    10    13 1   
    18    10    16 1   
    19    10    18 1   
    20    10    19 1   
    21    11    14 1   
    22    11    24 1   
    23    11    25 1   
    24    11    26 1   
    25    14    17 1   
    26    14    26 1   
    27    17    20 1   
    28    17    27 1   
    29    20    27 1   
    30    20    28 1   
    31    20    29 1   
    32    21    30 1   
    33    21    31 1   
    34    21    32 1   
@<TRIPOS>SUBSTRUCTURE
     1 TAE         1 TEMP              0 ****  ****    0 ROOT
