@<TRIPOS>MOLECULE
molecule
   32    32     1     0     0
SMALL
bcc


@<TRIPOS>ATOM
      1 N1           0.0000     0.0000     0.0000 n          1 TAE      -0.337000
      2 C2           1.3460     0.0000     0.0000 c          1 TAE       0.805500
      3 O2           1.9450     0.0010    -1.0570 o          1 TAE      -0.685500
      4 N3           2.0370     0.0000     1.1540 ns         1 TAE      -0.567500
      5 C4           1.3880     0.0010     2.3360 c          1 TAE       0.719700
      6 O4           2.0130     0.0010     3.3810 o          1 TAE      -0.683500
      7 C5          -0.0280    -0.0000     2.3500 cc         1 TAE      -0.325400
      8 C6          -0.6970    -0.0000     1.1780 cd         1 TAE       0.085600
      9 PA          -3.6710    -4.0050    -1.3210 p5         1 TAE       1.251600
     10 PB          -5.0230    -6.6420    -1.3700 p5         1 TAE       1.291900
     11 C1'         -0.7250     0.0060    -1.2720 c3         1 TAE       0.156200
     12 O1A         -4.8950    -3.1740    -1.2860 o          1 TAE      -0.848000
     13 O1B         -5.2330    -7.7110    -2.5560 o          1 TAE      -0.939833
     14 C2'         -0.9740    -1.4130    -1.7150 c2         1 TAE      -0.339200
     15 O2A         -3.0600    -4.1240     0.1650 o          1 TAE      -0.848000
     16 O2B         -4.3780    -7.3790    -0.0920 o          1 TAE      -0.939833
     17 C3'         -2.1940    -1.8120    -1.9790 c2         1 TAE       0.001800
     18 O3A         -4.0350    -5.4740    -1.8710 os         1 TAE      -0.716800
     19 O3B         -6.3290    -6.0570    -0.9950 o          1 TAE      -0.939833
     20 C4'         -2.4430    -3.2310    -2.4230 c3         1 TAE      -0.236400
     21 C5M         -0.7780     0.0010     3.6570 c3         1 TAE      -0.012900
     22 HN3          3.0380    -0.0000     1.1350 hn         1 TAE       0.337500
     23 H6          -1.7800    -0.0010     1.1690 h4         1 TAE       0.191000
     24 H1'         -1.6730     0.5160    -1.1450 h1         1 TAE       0.047700
     25 H1'A        -0.1360     0.5200    -2.0220 h1         1 TAE       0.047700
     26 H2'         -0.1450    -2.1020    -1.8160 ha         1 TAE       0.136000
     27 H3'         -3.0230    -1.1230    -1.8790 ha         1 TAE       0.117000
     28 H4'         -1.5160    -3.7900    -2.3810 hc         1 TAE       0.051700
     29 H4'A        -2.8190    -3.2300    -3.4390 hc         1 TAE       0.051700
     30 H5M         -1.2120     0.9790     3.8240 hc         1 TAE       0.042033
     31 H5MA        -0.0950    -0.2340     4.4650 hc         1 TAE       0.042033
     32 H5MB        -1.5650    -0.7420     3.6220 hc         1 TAE       0.042033
@<TRIPOS>BOND
     1    11     1 1
     2     8     1 1
     3     1     2 1
     4     2     3 2
     5     2     4 1
     6     5     4 1
     7     4    22 1
     8     7     5 1
     9     5     6 2
    10     8     7 2
    11    21     7 1
    12     8    23 1
    13    18     9 1
    14    12     9 1
    15     9    15 1
    16     9    20 1
    17    19    10 1
    18    16    10 1
    19    10    13 1
    20    10    18 1
    21    11    14 1
    22    11    24 1
    23    11    25 1
    24    17    14 2
    25    14    26 1
    26    17    20 1
    27    17    27 1
    28    20    28 1
    29    20    29 1
    30    21    30 1
    31    21    31 1
    32    21    32 1
@<TRIPOS>SUBSTRUCTURE
     1 TAE         1 TEMP              0 ****  ****    0 ROOT
