@<TRIPOS>MOLECULE
molecule
   55    59     1     0     0
SMALL
bcc


@<TRIPOS>ATOM
      1 C1           0.0000     0.0000     0.0000 c3         1 TAK       0.162300
      2 C2           1.5300     0.0000     0.0000 c3         1 TAK      -0.076900
      3 C3           2.0350     0.0000     1.4450 c3         1 TAK      -0.082400
      4 C4           1.4720     1.2220     2.1750 c3         1 TAK      -0.076900
      5 C5          -0.0570     1.1880     2.1120 c3         1 TAK       0.162300
      6 N1          -0.4900     1.1900     0.7090 n3         1 TAK      -0.719600
      7 C6          -1.9520     1.2960     0.6100 c3         1 TAK       0.163800
      8 C7          -2.4010     2.6610     1.1360 c3         1 TAK       0.138400
      9 O1          -1.8890     3.6910     0.2890 os         1 TAK      -0.305900
     10 C8          -2.1970     4.9720     0.6190 ca         1 TAK       0.157100
     11 C9          -1.7310     6.0210    -0.1620 ca         1 TAK      -0.193000
     12 C10         -2.0430     7.3220     0.1710 ca         1 TAK      -0.072500
     13 C11         -2.9820     5.2300     1.7340 ca         1 TAK      -0.193000
     14 C12         -3.2980     6.5290     2.0710 ca         1 TAK      -0.072500
     15 C13         -2.8270     7.5850     1.2920 ca         1 TAK      -0.094000
     16 C14         -3.1640     8.9840     1.6530 cc         1 TAK      -0.216300
     17 C15         -4.4600     9.4160     1.6120 cd         1 TAK       0.019700
     18 C16         -2.1520     9.8840     2.0490 cc         1 TAK       0.474200
     19 N2          -2.4580    11.1200     2.3670 nd         1 TAK      -0.668000
     20 C17         -3.7230    11.5480     2.3240 cd         1 TAK       0.410500
     21 N3          -4.7380    10.7080     1.9500 na         1 TAK       0.046200
     22 N4          -5.9370    11.4290     2.0050 nd         1 TAK      -0.571100
     23 C18         -5.6860    12.6560     2.3920 cc         1 TAK       0.435500
     24 C19         -4.3100    12.7900     2.6060 cc         1 TAK      -0.280800
     25 C20         -3.6060    14.0120     3.0550 ca         1 TAK       0.038200
     26 C21         -3.8190    15.2400     2.4170 ca         1 TAK      -0.243300
     27 C22         -3.1420    16.3530     2.8680 ca         1 TAK       0.417200
     28 N5          -2.3040    16.2710     3.8830 nb         1 TAK      -0.699000
     29 C23         -2.0740    15.1330     4.5130 ca         1 TAK       0.417200
     30 C24         -2.7120    13.9730     4.1320 ca         1 TAK      -0.243300
     31 H1          -0.3600    -0.8910     0.5010 h1         1 TAK       0.031950
     32 H1A         -0.3600     0.0160    -1.0220 h1         1 TAK       0.031950
     33 H2           1.8910    -0.8860    -0.5080 hc         1 TAK       0.049950
     34 H2A          1.8910     0.8860    -0.5080 hc         1 TAK       0.049950
     35 H3           3.1170     0.0440     1.4500 hc         1 TAK       0.040700
     36 H3A          1.7020    -0.9030     1.9440 hc         1 TAK       0.040700
     37 H4           1.8320     2.1250     1.6970 hc         1 TAK       0.049950
     38 H4A          1.7910     1.2030     3.2100 hc         1 TAK       0.049950
     39 H5          -0.4570     2.0610     2.6130 h1         1 TAK       0.031950
     40 H5A         -0.4170     0.2890     2.5980 h1         1 TAK       0.031950
     41 H6          -2.4120     0.5120     1.1990 h1         1 TAK       0.047200
     42 H6A         -2.2520     1.1930    -0.4260 h1         1 TAK       0.047200
     43 H7          -3.4830     2.7060     1.1460 h1         1 TAK       0.037700
     44 H7A         -2.0250     2.8010     2.1430 h1         1 TAK       0.037700
     45 H9          -1.1210     5.8160    -1.0340 ha         1 TAK       0.144500
     46 H10         -1.6770     8.1400    -0.4380 ha         1 TAK       0.138000
     47 H11         -3.3480     4.4100     2.3390 ha         1 TAK       0.144500
     48 H12         -3.9100     6.7290     2.9430 ha         1 TAK       0.138000
     49 H15         -5.2200     8.8040     1.1410 h4         1 TAK       0.185000
     50 H16         -1.1220     9.5510     2.1030 h4         1 TAK       0.044100
     51 H18         -6.4240    13.4380     2.5240 h4         1 TAK       0.068800
     52 H21         -4.5060    15.3140     1.5830 ha         1 TAK       0.141000
     53 H22         -3.3000    17.3080     2.3810 h4         1 TAK       0.020600
     54 H23         -1.3780    15.1130     5.3430 h4         1 TAK       0.020600
     55 H24         -2.5190    13.0430     4.6520 ha         1 TAK       0.141000
@<TRIPOS>BOND
     1     1     2 1
     2     1     6 1
     3     2     3 1
     4     3     4 1
     5     4     5 1
     6     5     6 1
     7     6     7 1
     8     7     8 1
     9     8     9 1
    10     9    10 1
    11    10    11 ar
    12    10    13 ar
    13    11    12 ar
    14    12    15 ar
    15    13    14 ar
    16    14    15 ar
    17    15    16 1
    18    16    17 2
    19    16    18 1
    20    17    21 1
    21    18    19 2
    22    19    20 1
    23    20    21 1
    24    20    24 2
    25    21    22 1
    26    22    23 2
    27    23    24 1
    28    24    25 1
    29    25    26 ar
    30    25    30 ar
    31    26    27 ar
    32    27    28 ar
    33    28    29 ar
    34    29    30 ar
    35     1    31 1
    36     1    32 1
    37     2    33 1
    38     2    34 1
    39     3    35 1
    40     3    36 1
    41     4    37 1
    42     4    38 1
    43     5    39 1
    44     5    40 1
    45     7    41 1
    46     7    42 1
    47     8    43 1
    48     8    44 1
    49    11    45 1
    50    12    46 1
    51    13    47 1
    52    14    48 1
    53    17    49 1
    54    18    50 1
    55    23    51 1
    56    26    52 1
    57    27    53 1
    58    29    54 1
    59    30    55 1
@<TRIPOS>SUBSTRUCTURE
     1 TAK         1 TEMP              0 ****  ****    0 ROOT
