@<TRIPOS>MOLECULE
TAM
   29    28     1     0     0
SMALL
bcc


@<TRIPOS>ATOM
      1 C            0.0000     0.0000     0.0000 c3         1 TAM      -0.051800
      2 C1           1.5550     0.0000     0.0000 c3         1 TAM      -0.063067
      3 C2          -0.4740     0.0000     1.4800 c3         1 TAM      -0.063067
      4 C3          -0.5950     1.1770    -0.8130 c3         1 TAM      -0.063067
      5 C4           2.2310     0.0660    -1.3680 c3         1 TAM       0.236067
      6 C5          -1.9840    -0.0820     1.6970 c3         1 TAM       0.236067
      7 C6          -0.2650     2.5680    -0.2790 c3         1 TAM       0.236067
      8 N           -0.4820    -1.2460    -0.6250 nz         1 TAM       0.039400
      9 O4           3.6420     0.0900    -1.1730 oh         1 TAM      -0.572800
     10 O5          -2.2380    -0.0950     3.0970 oh         1 TAM      -0.572800
     11 O6          -0.8550     3.5350    -1.1420 oh         1 TAM      -0.572800
     12 H11          1.8900    -0.9020     0.4970 hc         1 TAM       0.054200
     13 H12          1.8900     0.8500     0.5810 hc         1 TAM       0.054200
     14 H21         -0.1150     0.9080     1.9480 hc         1 TAM       0.054200
     15 H22         -0.0150    -0.8440     1.9800 hc         1 TAM       0.054200
     16 H31         -1.6730     1.0670    -0.8320 hc         1 TAM       0.054200
     17 H32         -0.2270     1.1070    -1.8300 hc         1 TAM       0.054200
     18 H41          1.9590    -0.8040    -1.9520 h1         1 TAM      -0.010133
     19 H42          1.9200     0.9650    -1.8860 h1         1 TAM      -0.010133
     20 H51         -2.3680    -0.9900     1.2480 h1         1 TAM      -0.010133
     21 H52         -2.4640     0.7790     1.2470 h1         1 TAM      -0.010133
     22 H61          0.8090     2.7050    -0.2590 h1         1 TAM      -0.010133
     23 H62         -0.6660     2.6790     0.7210 h1         1 TAM      -0.010133
     24 HN1         -0.1270    -1.3100    -1.5580 hn         1 TAM       0.231467
     25 HN2         -1.4830    -1.2420    -0.6480 hn         1 TAM       0.231467
     26 HO4          4.0760     0.0410    -2.0080 ho         1 TAM       0.418000
     27 HO5         -3.1640    -0.1890     3.2480 ho         1 TAM       0.418000
     28 HO6         -0.6720     4.4000    -0.8160 ho         1 TAM       0.418000
     29 HN3         -0.1630    -2.0310    -0.0930 hn         1 TAM       0.231467
@<TRIPOS>BOND
     1     1     2 1   
     2     1     3 1   
     3     1     4 1   
     4     1     8 1   
     5     2     5 1   
     6     2    12 1   
     7     2    13 1   
     8     3     6 1   
     9     3    14 1   
    10     3    15 1   
    11     4     7 1   
    12     4    16 1   
    13     4    17 1   
    14     5     9 1   
    15     5    18 1   
    16     5    19 1   
    17     6    10 1   
    18     6    20 1   
    19     6    21 1   
    20     7    11 1   
    21     7    22 1   
    22     7    23 1   
    23     8    24 1   
    24     8    25 1   
    25     8    29 1   
    26     9    26 1   
    27    10    27 1   
    28    11    28 1   
@<TRIPOS>SUBSTRUCTURE
     1 TAM         1 TEMP              0 ****  ****    0 ROOT
