@<TRIPOS>MOLECULE
molecule
   15    14     1     0     0
SMALL
bcc


@<TRIPOS>ATOM
      1 C            2.0200    -1.2020    -0.6940 c1         1 TAN       0.222700
      2 N            2.4130    -2.1310    -1.2150 n1         1 TAN      -0.377800
      3 C1           0.0000     0.0000     0.0000 c3         1 TAN      -0.083100
      4 C2           1.5300     0.0000     0.0000 c3         1 TAN      -0.001900
      5 C3           2.0390     0.0000     1.4430 c3         1 TAN      -0.083100
      6 C4           2.0390     1.2490    -0.7220 c3         1 TAN      -0.083100
      7 H1          -0.3610     0.8850     0.5100 hc         1 TAN       0.044700
      8 H1A         -0.3610    -0.0010    -1.0210 hc         1 TAN       0.044700
      9 H1B         -0.3610    -0.8840     0.5110 hc         1 TAN       0.044700
     10 H3           3.1220    -0.0010     1.4430 hc         1 TAN       0.044700
     11 H3A          1.6780     0.8850     1.9530 hc         1 TAN       0.044700
     12 H3B          1.6770    -0.8840     1.9540 hc         1 TAN       0.044700
     13 H4           1.6780     1.2490    -1.7430 hc         1 TAN       0.044700
     14 H4A          3.1230     1.2490    -0.7220 hc         1 TAN       0.044700
     15 H4B          1.6780     2.1340    -0.2110 hc         1 TAN       0.044700
@<TRIPOS>BOND
     1     1     2 3
     2     1     4 1
     3     3     4 1
     4     4     5 1
     5     4     6 1
     6     3     7 1
     7     3     8 1
     8     3     9 1
     9     5    10 1
    10     5    11 1
    11     5    12 1
    12     6    13 1
    13     6    14 1
    14     6    15 1
@<TRIPOS>SUBSTRUCTURE
     1 TAN         1 TEMP              0 ****  ****    0 ROOT
