@<TRIPOS>MOLECULE
TAQ
   22    23     1     0     0
SMALL
bcc


@<TRIPOS>ATOM
      1 C6           0.0000     0.0000     0.0000 ca         1 TAQ      -0.007400
      2 N4          -0.6920     0.0000    -1.2150 nv         1 TAQ      -0.535200
      3 C1           1.3970     0.0000     0.0000 ca         1 TAQ      -0.077000
      4 C2           2.0980     0.0000     1.1680 ca         1 TAQ      -0.170300
      5 C3           1.4130     0.0000     2.3910 ca         1 TAQ       0.481600
      6 N3           2.0650    -0.0000     3.5650 nb         1 TAQ      -0.764000
      7 C8           1.3950     0.0000     4.7010 ca         1 TAQ       0.754900
      8 N2           2.1050    -0.0000     5.8880 nv         1 TAQ      -0.502500
      9 N1           0.0660     0.0000     4.7520 nb         1 TAQ      -0.778000
     10 C7          -0.6670     0.0000     3.6490 ca         1 TAQ       0.582200
     11 C4          -0.0020     0.0000     2.3980 ca         1 TAQ      -0.350600
     12 C5          -0.7010     0.0040     1.1870 ca         1 TAQ      -0.088000
     13 NAA         -2.0440     0.0000     3.7160 nv         1 TAQ      -0.500500
     14 H4N1        -0.6400     0.7950    -1.8200 hn         1 TAQ       0.268300
     15 H4N2        -1.2820    -0.7720    -1.4540 hn         1 TAQ       0.268300
     16 H1           1.9310     0.0010    -0.9430 ha         1 TAQ       0.104000
     17 H2           3.1810    -0.0000     1.1520 ha         1 TAQ       0.118000
     18 H2N1         1.6180    -0.0000     6.7620 hn         1 TAQ       0.272300
     19 H2N2         3.1060    -0.0000     5.8730 hn         1 TAQ       0.272300
     20 H5          -1.7750     0.1510     1.1820 ha         1 TAQ       0.102000
     21 HAA1        -2.5020     0.0720     4.6030 hn         1 TAQ       0.274300
     22 HAA2        -2.5860    -0.0950     2.8800 hn         1 TAQ       0.274300
@<TRIPOS>BOND
     1     1     2 1   
     2     1     3 ar  
     3     1    12 ar  
     4     2    14 1   
     5     2    15 1   
     6     3     4 ar  
     7     3    16 1   
     8     4     5 ar  
     9     4    17 1   
    10     5     6 ar  
    11     5    11 ar  
    12     6     7 ar  
    13     7     8 1   
    14     7     9 ar  
    15     8    18 1   
    16     8    19 1   
    17     9    10 ar  
    18    10    11 ar  
    19    10    13 1   
    20    11    12 ar  
    21    12    20 1   
    22    13    21 1   
    23    13    22 1   
@<TRIPOS>SUBSTRUCTURE
     1 TAQ         1 TEMP              0 ****  ****    0 ROOT
