@<TRIPOS>MOLECULE
molecule
   14    13     1     0     0
SMALL
bcc


@<TRIPOS>ATOM
      1 O1           0.0000     0.0000     0.0000 o          1 TAR      -0.876550
      2 O11          1.8790     0.0180    -1.1620 o          1 TAR      -0.876550
      3 C1           1.2070     0.0000     0.0000 c          1 TAR       0.881100
      4 C2           1.9620     0.0000     1.3050 c3         1 TAR       0.068100
      5 O2           1.0380     0.1190     2.3890 oh         1 TAR      -0.582800
      6 C3           2.7440    -1.3060     1.4420 c3         1 TAR       0.068100
      7 O3           1.8520    -2.4130     1.3000 oh         1 TAR      -0.582800
      8 C4           3.3990    -1.3600     2.7990 c          1 TAR       0.881100
      9 O4           3.0640    -2.2010     3.5990 o          1 TAR      -0.876550
     10 O41          4.3550    -0.4730     3.1180 o          1 TAR      -0.876550
     11 H2           2.6500     0.8370     1.3240 h1         1 TAR       0.031200
     12 HO2          0.8910     1.0300     2.5790 ho         1 TAR       0.356000
     13 H3           3.5050    -1.3540     0.6720 h1         1 TAR       0.031200
     14 HO3          2.3200    -3.1500     0.9440 ho         1 TAR       0.356000
@<TRIPOS>BOND
     1     1     3 1
     2     2     3 1
     3     3     4 1
     4     4     5 1
     5     4     6 1
     6     4    11 1
     7     5    12 1
     8     6     7 1
     9     6     8 1
    10     6    13 1
    11     7    14 1
    12     8     9 1
    13     8    10 1
@<TRIPOS>SUBSTRUCTURE
     1 TAR         1 TEMP              0 ****  ****    0 ROOT
