@<TRIPOS>MOLECULE
TAR
   14    13     1     0     0
SMALL
bcc


@<TRIPOS>ATOM
      1 O1          0.1250    0.4250   -0.0940 o         1 TAR     -0.870800
      2 O11         2.1630    0.7590   -0.9200 o         1 TAR     -0.870800
      3 C1          1.3920    0.4190    0.0220 c         1 TAR      0.891600
      4 C2          1.9780    0.0160    1.3950 c3        1 TAR      0.021100
      5 O2          0.9430   -0.0050    2.3720 oh        1 TAR     -0.639800
      6 C3          2.6920   -1.3440    1.3610 c3        1 TAR      0.021100
      7 O3          1.7400   -2.3930    1.4960 oh        1 TAR     -0.639800
      8 C4          3.7760   -1.4780    2.4540 c         1 TAR      0.891600
      9 O4          3.5490   -2.2890    3.4070 o         1 TAR     -0.870800
     10 O41         4.8530   -0.8220    2.3620 o         1 TAR     -0.870800
     11 H2          2.7050    0.7990    1.7400 h1        1 TAR      0.062700
     12 HO2         0.1610   -0.3490    1.9160 ho        1 TAR      0.406000
     13 H3          3.1560   -1.4840    0.3480 h1        1 TAR      0.062700
     14 HO3         1.6350   -2.5280    2.4490 ho        1 TAR      0.406000
@<TRIPOS>BOND
     1    1    3 1   
     2    2    3 1   
     3    3    4 1   
     4    4    5 1   
     5    4    6 1   
     6    4   11 1   
     7    5   12 1   
     8    6    7 1   
     9    6    8 1   
    10    6   13 1   
    11    7   14 1   
    12    8    9 1   
    13    8   10 1   
@<TRIPOS>SUBSTRUCTURE
     1 TAR         1 TEMP              0 ****  ****    0 ROOT
