@<TRIPOS>MOLECULE
molecule
   44    46     1     0     0
SMALL
bcc


@<TRIPOS>ATOM
      1 N1           0.0000     0.0000     0.0000 nb         1 TAT      -0.839000
      2 C2           1.3200     0.0000     0.0000 ca         1 TAT       0.657900
      3 N3           2.0260     0.0000     1.1110 nb         1 TAT      -0.787000
      4 C4           1.4260     0.0020     2.2960 ca         1 TAT       0.470800
      5 C5           0.0210     0.0020     2.3490 ca         1 TAT      -0.217200
      6 C6          -0.6890     0.0010     1.1370 ca         1 TAT       0.734200
      7 N6          -2.0720     0.0020     1.1260 nv         1 TAT      -1.004500
      8 N7          -0.3290     0.0040     3.6580 nc         1 TAT      -0.602100
      9 C8           0.7450     0.0040     4.3930 cd         1 TAT       0.411700
     10 N9           1.8520     0.0020     3.6000 na         1 TAT      -0.256000
     11 PA           3.9870    -0.8020     9.7770 p5         1 TAT       1.472500
     12 PB           3.6960    -2.9970    11.7470 p5         1 TAT       1.421800
     13 PG           2.5940    -5.6400    12.5130 p5         1 TAT       1.308900
     14 C1'          3.2450     0.0010     4.0550 c3         1 TAT       0.265800
     15 O1A          2.9400    -7.1190    11.9800 o          1 TAT      -0.869833
     16 O1B          2.6150    -2.2950    12.4730 o          1 TAT      -0.809500
     17 S1G          2.1920     0.2190    10.2580 sh         1 TAT      -0.605200
     18 C2'          3.8050     1.4460     4.1030 c3         1 TAT       0.086100
     19 O2'          4.3250     1.8340     2.8310 oh         1 TAT      -0.562800
     20 O2A          5.1290    -0.1240    10.4280 o          1 TAT      -0.786300
     21 O2B          5.0660    -2.8870    12.5840 o          1 TAT      -0.809500
     22 O2G          3.0750    -5.4920    13.9050 o          1 TAT      -0.869833
     23 C3'          4.9400     1.3190     5.1490 c3         1 TAT       0.081100
     24 O3'          6.2020     1.1550     4.5000 oh         1 TAT      -0.576800
     25 O3A          3.8960    -2.3230    10.2990 os         1 TAT      -0.627800
     26 O3B          3.3010    -4.5480    11.5650 os         1 TAT      -0.708800
     27 O3G          0.9990    -5.4140    12.4690 o          1 TAT      -0.869833
     28 C4'          4.5770     0.0530     5.9490 c3         1 TAT       0.125100
     29 O4'          3.3310    -0.4400     5.4270 os         1 TAT      -0.380600
     30 C5'          4.4180     0.4020     7.4310 c3         1 TAT       0.209400
     31 O5'          4.1970    -0.7940     8.1800 os         1 TAT      -0.552200
     32 H1           1.8410    -0.0010    -0.9500 h5         1 TAT       0.035100
     33 H2          -2.5790    -0.0060     1.9890 hn         1 TAT       0.434800
     34 H3          -2.5660     0.0060     0.2560 hn         1 TAT       0.434800
     35 H4           0.7560     0.0040     5.4770 h5         1 TAT       0.099800
     36 H5           3.8610    -0.6230     3.4170 h2         1 TAT       0.104700
     37 H7           2.4800     1.3380    10.9110 hs         1 TAT       0.323800
     38 H8           3.0450     2.1390     4.4450 h1         1 TAT       0.056700
     39 H9           4.2180     2.7640     2.7180 ho         1 TAT       0.390000
     40 H11          4.9510     2.1850     5.7990 h1         1 TAT       0.041700
     41 H12          6.8110     1.7950     4.8300 ho         1 TAT       0.396000
     42 H14          5.3500    -0.6950     5.8220 h1         1 TAT       0.094700
     43 H15          3.5730     1.0680     7.5570 h1         1 TAT       0.037200
     44 H16          5.3180     0.8890     7.7860 h1         1 TAT       0.037200
@<TRIPOS>BOND
     1     2     1 ar
     2     2     3 ar
     3     1     6 ar
     4     3     4 ar
     5    19    18 1
     6    24    23 1
     7     6     7 1
     8     6     5 ar
     9     4     5 ar
    10     4    10 1
    11     5     8 1
    12    14    10 1
    13    14    18 1
    14    14    29 1
    15    10     9 1
    16    18    23 1
    17     8     9 2
    18    23    28 1
    19    29    28 1
    20    28    30 1
    21    20    11 2
    22    30    31 1
    23    31    11 1
    24    11    25 1
    25    11    17 1
    26    25    12 1
    27    16    12 1
    28    12    26 1
    29    12    21 1
    30    26    13 1
    31    22    13 1
    32    15    13 1
    33    13    27 1
    34     2    32 1
    35     7    33 1
    36     7    34 1
    37     9    35 1
    38    14    36 1
    39    17    37 1
    40    18    38 1
    41    19    39 1
    42    23    40 1
    43    24    41 1
    44    28    42 1
    45    30    43 1
    46    30    44 1
@<TRIPOS>SUBSTRUCTURE
     1 TAT         1 TEMP              0 ****  ****    0 ROOT
