@<TRIPOS>MOLECULE
TAU
   13    12     1     0     0
SMALL
bcc


@<TRIPOS>ATOM
      1 C1         -0.0280   -0.2880   -0.0880 c3        1 TAU      0.174800
      2 C2          1.3870    0.2500   -0.0570 c3        1 TAU     -0.329600
      3 N1         -0.7830   -0.1990    1.1430 n3        1 TAU     -0.904800
      4 S           2.2120    0.0840   -1.6280 s6        1 TAU      1.430800
      5 O1          2.2280   -1.3060   -1.8910 o         1 TAU     -0.751867
      6 O2          3.4950    0.6350   -1.3910 o         1 TAU     -0.751867
      7 O3          1.4280    0.8330   -2.5370 o         1 TAU     -0.751867
      8 H1C1        0.0100   -1.3750   -0.3890 h1        1 TAU      0.059700
      9 H1C2       -0.6040    0.2660   -0.8850 h1        1 TAU      0.059700
     10 H2C1        1.9890   -0.2890    0.7120 h1        1 TAU      0.060700
     11 H2C2        1.3840    1.3290    0.2230 h1        1 TAU      0.060700
     12 H1N1       -0.3040   -0.6960    1.8710 hn        1 TAU      0.321800
     13 H1N2       -0.8490    0.7590    1.4310 hn        1 TAU      0.321800
@<TRIPOS>BOND
     1    1    2 1   
     2    1    3 1   
     3    1    8 1   
     4    1    9 1   
     5    2    4 1   
     6    2   10 1   
     7    2   11 1   
     8    3   12 1   
     9    3   13 1   
    10    4    5 1   
    11    4    6 1   
    12    4    7 1   
@<TRIPOS>SUBSTRUCTURE
     1 TAU         1 TEMP              0 ****  ****    0 ROOT
