@<TRIPOS>MOLECULE
TAX
   58    60     1     0     0
SMALL
bcc


@<TRIPOS>ATOM
      1 CA           0.0000     0.0000     0.0000 c3         1 TAX       0.014800
      2 CB           1.5300     0.0000     0.0000 c3         1 TAX      -0.009100
      3 CA1          2.3060    -5.9030    -0.5900 c3         1 TAX       0.157400
      4 CB1          3.1350    -7.0680    -1.1360 c3         1 TAX      -0.029200
      5 C1           2.2690    -4.2040     0.8670 ca         1 TAX       0.085100
      6 C2           2.7350    -3.3580     1.8660 ca         1 TAX      -0.166000
      7 C3           1.9460    -2.3240     2.3190 ca         1 TAX      -0.046500
      8 C5           0.2100    -2.9810     0.7730 ca         1 TAX      -0.046500
      9 C6           1.0070    -4.0100     0.3210 ca         1 TAX      -0.166000
     10 C4           0.6760    -2.1260     1.7730 ca         1 TAX      -0.021800
     11 C7          -0.1740    -1.0170     2.2560 ce         1 TAX      -0.047400
     12 C8          -0.6670    -1.0160     3.6510 ca         1 TAX      -0.044800
     13 C9          -1.5530    -2.0040     4.0820 ca         1 TAX      -0.094000
     14 C10         -2.0090    -1.9970     5.3850 ca         1 TAX      -0.097000
     15 C11         -1.5890    -1.0130     6.2630 ca         1 TAX      -0.094000
     16 C12         -0.7120    -0.0310     5.8420 ca         1 TAX      -0.097000
     17 C13         -0.2430    -0.0300     4.5440 ca         1 TAX      -0.094000
     18 C14         -0.5020     0.0000     1.4210 cf         1 TAX      -0.017400
     19 C15         -1.3480     1.1030     1.9010 ca         1 TAX      -0.065800
     20 C16         -0.8290     2.4000     1.9870 ca         1 TAX      -0.087500
     21 C17         -1.6290     3.4290     2.4380 ca         1 TAX      -0.097500
     22 C18         -2.9400     3.1810     2.8050 ca         1 TAX      -0.090000
     23 C19         -3.4600     1.9010     2.7240 ca         1 TAX      -0.097500
     24 C20         -2.6760     0.8620     2.2700 ca         1 TAX      -0.087500
     25 NI           3.3420    -8.0610    -0.0730 nx         1 TAX       0.036600
     26 C21          2.0500    -8.6470     0.3080 c3         1 TAX       0.006100
     27 C22          4.2350    -9.1200    -0.5600 c3         1 TAX       0.006100
     28 HA1         -0.3610     0.8850    -0.5100 hc         1 TAX       0.025200
     29 HA2         -0.3610    -0.8840    -0.5110 hc         1 TAX       0.025200
     30 HB1          1.8910     0.8270    -0.5990 hc         1 TAX       0.007700
     31 HB2          1.8910    -0.9330    -0.4160 hc         1 TAX       0.007700
     32 HB3          1.8910     0.1050     1.0160 hc         1 TAX       0.007700
     33 HA11         1.3840    -6.2830    -0.1670 h1         1 TAX       0.047700
     34 HA12         2.0780    -5.2140    -1.3940 h1         1 TAX       0.047700
     35 HB11         4.0940    -6.7000    -1.4780 hx         1 TAX       0.085700
     36 HB12         2.6090    -7.5290    -1.9630 hx         1 TAX       0.085700
     37 H2           3.7200    -3.5120     2.2890 ha         1 TAX       0.117000
     38 H3           2.3120    -1.6640     3.0960 ha         1 TAX       0.123000
     39 H5          -0.7740    -2.8300     0.3460 ha         1 TAX       0.123000
     40 H6           0.6450    -4.6740    -0.4540 ha         1 TAX       0.117000
     41 H9          -1.8820    -2.7750     3.3960 ha         1 TAX       0.106000
     42 H10         -2.6970    -2.7640     5.7210 ha         1 TAX       0.106000
     43 H11         -1.9520    -1.0110     7.2840 ha         1 TAX       0.107000
     44 H12         -0.3860     0.7360     6.5350 ha         1 TAX       0.106000
     45 H13          0.4430     0.7410     4.2160 ha         1 TAX       0.106000
     46 H16          0.1970     2.5960     1.6990 ha         1 TAX       0.107500
     47 H17         -1.2300     4.4340     2.5050 ha         1 TAX       0.107000
     48 H18         -3.5620     3.9940     3.1610 ha         1 TAX       0.107000
     49 H19         -4.4880     1.7160     3.0120 ha         1 TAX       0.107000
     50 H20         -3.0840    -0.1390     2.2070 ha         1 TAX       0.107500
     51 HI           3.7540    -7.6170     0.7230 hn         1 TAX       0.271800
     52 H211         1.6040    -8.0560     1.0990 hx         1 TAX       0.074033
     53 H212         2.2020    -9.6610     0.6580 hx         1 TAX       0.074033
     54 H213         1.3890    -8.6560    -0.5510 hx         1 TAX       0.074033
     55 H221         3.7680    -9.6320    -1.3930 hx         1 TAX       0.074033
     56 H222         4.4250    -9.8280     0.2380 hx         1 TAX       0.074033
     57 H223         5.1710    -8.6820    -0.8850 hx         1 TAX       0.074033
     58 OL           3.0510    -5.2230     0.4230 os         1 TAX      -0.311900
@<TRIPOS>BOND
     1     1     2 1   
     2     1    18 1   
     3     1    28 1   
     4     1    29 1   
     5     2    30 1   
     6     2    31 1   
     7     2    32 1   
     8     3     4 1   
     9     3    33 1   
    10     3    34 1   
    11     3    58 1   
    12     4    25 1   
    13     4    35 1   
    14     4    36 1   
    15     5     6 ar  
    16     5     9 ar  
    17     5    58 1   
    18     6     7 ar  
    19     6    37 1   
    20     7    10 ar  
    21     7    38 1   
    22     8     9 ar  
    23     8    10 ar  
    24     8    39 1   
    25     9    40 1   
    26    10    11 1   
    27    11    12 1   
    28    11    18 2   
    29    12    13 ar  
    30    12    17 ar  
    31    13    14 ar  
    32    13    41 1   
    33    14    15 ar  
    34    14    42 1   
    35    15    16 ar  
    36    15    43 1   
    37    16    17 ar  
    38    16    44 1   
    39    17    45 1   
    40    18    19 1   
    41    19    20 ar  
    42    19    24 ar  
    43    20    21 ar  
    44    20    46 1   
    45    21    22 ar  
    46    21    47 1   
    47    22    23 ar  
    48    22    48 1   
    49    23    24 ar  
    50    23    49 1   
    51    24    50 1   
    52    25    26 1   
    53    25    27 1   
    54    25    51 1   
    55    26    52 1   
    56    26    53 1   
    57    26    54 1   
    58    27    55 1   
    59    27    56 1   
    60    27    57 1   
@<TRIPOS>SUBSTRUCTURE
     1 TAX         1 TEMP              0 ****  ****    0 ROOT
