@<TRIPOS>MOLECULE
TAY
   19    18     1     0     0
SMALL
bcc


@<TRIPOS>ATOM
      1 CAA        -0.0260   -0.0110    0.0290 c3        1 TAY     -0.114767
      2 CAB         2.0500    0.0110    1.4110 c3        1 TAY     -0.114767
      3 CAC         1.9940   -1.2530   -0.7510 c3        1 TAY     -0.114767
      4 NAD         3.4430    1.4820   -0.7820 n4        1 TAY     -0.770400
      5 OAE         1.2870    2.0450   -1.3730 o         1 TAY     -0.383100
      6 CAF         1.9430    1.2210   -0.7640 c         1 TAY      0.545100
      7 CAG         1.4990   -0.0210   -0.0060 c3        1 TAY     -0.094000
      8 HAA        -0.4000    0.8870    0.5780 hc        1 TAY      0.071256
      9 HAAA       -0.4430    0.0010   -1.0080 hc        1 TAY      0.071256
     10 HAAB       -0.3880   -0.9300    0.5520 hc        1 TAY      0.071256
     11 HAB         1.5520   -0.7940    2.0110 hc        1 TAY      0.071256
     12 HABA        3.1490   -0.1870    1.4310 hc        1 TAY      0.071256
     13 HABB        1.8350    0.9880    1.9050 hc        1 TAY      0.071256
     14 HAC         3.1050   -1.3460   -0.7010 hc        1 TAY      0.071256
     15 HACA        1.6680   -1.2320   -1.8200 hc        1 TAY      0.071256
     16 HACB        1.5520   -2.1650   -0.2740 hc        1 TAY      0.071256
     17 HNAD        3.9260    0.6760   -1.1890 hn        1 TAY      0.467800
     18 HNAA        3.6570    2.3210   -1.3360 hn        1 TAY      0.467800
     19 HAD3        3.7770    1.6170    0.1770 hn        1 TAY      0.467800
@<TRIPOS>BOND
     1    1    7 1
     2    1    8 1
     3    1    9 1
     4    1   10 1
     5    2    7 1
     6    2   11 1
     7    2   12 1
     8    2   13 1
     9    3    7 1
    10    3   14 1
    11    3   15 1
    12    3   16 1
    13    4    6 1
    14    4   17 1
    15    4   18 1
    16    4   19 1
    17    5    6 2
    18    6    7 1
@<TRIPOS>SUBSTRUCTURE
     1 TAY         1 TEMP              0 ****  ****    0 ROOT
