@<TRIPOS>MOLECULE
TAZ
   31    33     1     0     0
SMALL
bcc


@<TRIPOS>ATOM
      1 S1          0.0780   -0.2960   -0.2060 s6        1 TAZ      1.226000
      2 C2          1.8100   -0.1240   -0.1150 c3        1 TAZ     -0.233200
      3 C3          2.2170   -0.1320    1.4010 c3        1 TAZ     -0.078300
      4 C5         -0.1230   -0.7720    1.4450 cy        1 TAZ     -0.184500
      5 C6         -0.2350   -2.2670    1.8290 cy        1 TAZ     -0.162400
      6 C7          1.0640   -2.0580    2.6340 c         1 TAZ      0.705500
      7 C9          3.6390   -0.8070    1.5430 c         1 TAZ      0.940600
      8 N4          1.1510   -0.6660    2.2240 n         1 TAZ     -0.326800
      9 C20         2.4570   -1.2910   -0.8380 c3        1 TAZ     -0.086100
     10 C14         2.3580    1.2030   -0.6640 c3        1 TAZ      0.078300
     11 C19         1.2880    2.1570   -3.9920 cc        1 TAZ      0.223200
     12 C18         1.0180    2.0980   -2.6160 cd        1 TAZ     -0.225600
     13 N15         2.1360    1.4360   -2.0790 na        1 TAZ      0.042400
     14 N16         3.0030    1.1330   -3.0770 nd        1 TAZ     -0.158800
     15 N17         2.5390    1.5360   -4.1890 nc        1 TAZ     -0.380000
     16 O12        -0.5480    0.9580   -0.4020 o         1 TAZ     -0.659300
     17 O13        -0.3570   -1.3160   -1.0710 o         1 TAZ     -0.659300
     18 O8          1.6430   -2.7320    3.4660 o         1 TAZ     -0.507500
     19 O10         3.6860   -2.0460    1.7260 o         1 TAZ     -0.797300
     20 O11         4.6020   -0.0100    1.4100 o         1 TAZ     -0.797300
     21 HC3         2.3420    0.9380    1.7460 h1        1 TAZ      0.074700
     22 HC51       -0.9130   -0.1510    1.9430 h2        1 TAZ      0.123700
     23 HC61       -1.1220   -2.5300    2.4410 hc        1 TAZ      0.081700
     24 HC62       -0.1310   -2.9670    0.9710 hc        1 TAZ      0.081700
     25 H201        3.5620   -1.1290   -0.9170 hc        1 TAZ      0.069700
     26 H202        2.0310   -1.4070   -1.8650 hc        1 TAZ      0.069700
     27 H203        2.3000   -2.2370   -0.2610 hc        1 TAZ      0.069700
     28 H141        3.4710    1.2110   -0.4420 h1        1 TAZ      0.104700
     29 H142        1.8620    2.0560   -0.1150 h1        1 TAZ      0.104700
     30 H191        0.7080    2.5710   -4.8100 h4        1 TAZ      0.043100
     31 H181        0.1740    2.4190   -2.0020 h4        1 TAZ      0.218000
@<TRIPOS>BOND
     1    1    2 1
     2    1    4 1
     3    1   16 2
     4    1   17 2
     5    2    3 1
     6    2    9 1
     7    2   10 1
     8    3    7 1
     9    3    8 1
    10    3   21 1
    11    4    5 1
    12    4    8 1
    13    4   22 1
    14    5    6 1
    15    5   23 1
    16    5   24 1
    17    6    8 1
    18    6   18 2
    19    7   19 1
    20    7   20 1
    21    9   25 1
    22    9   26 1
    23    9   27 1
    24   10   13 1
    25   10   28 1
    26   10   29 1
    27   11   12 2
    28   11   15 1
    29   11   30 1
    30   12   13 1
    31   12   31 1
    32   13   14 1
    33   14   15 2
@<TRIPOS>SUBSTRUCTURE
     1 TAZ         1 TEMP              0 ****  ****    0 ROOT
