@<TRIPOS>MOLECULE
TB0
   15    14     1     0     0
SMALL
bcc


@<TRIPOS>ATOM
      1 C          -0.8840    2.2180   -1.0510 c1        1 TB0      0.428800
      2 N          -0.5020    1.2160   -0.5600 n1        1 TB0     -0.841300
      3 C2         -0.0390    0.0040    0.0340 c3        1 TB0      0.299500
      4 C4          1.4990   -0.0840   -0.0080 c3        1 TB0     -0.103100
      5 C3         -0.4760   -0.0940    1.5090 c3        1 TB0     -0.103100
      6 C1         -0.6010   -1.2260   -0.7050 c3        1 TB0     -0.103100
      7 H4          1.9600    0.7620    0.5540 hc        1 TB0      0.047033
      8 H4A         1.8160   -1.0430    0.4650 hc        1 TB0      0.047033
      9 H4B         1.8690   -0.0640   -1.0600 hc        1 TB0      0.047033
     10 H3         -0.0570    0.7520    2.1040 hc        1 TB0      0.047033
     11 H3A        -0.0950   -1.0530    1.9330 hc        1 TB0      0.047033
     12 H3B        -1.5880   -0.0810    1.5960 hc        1 TB0      0.047033
     13 H1         -0.2760   -1.2310   -1.7730 hc        1 TB0      0.047033
     14 H1A        -1.7160   -1.2380   -0.6660 hc        1 TB0      0.047033
     15 H1B        -0.2160   -2.1490   -0.2100 hc        1 TB0      0.047033
@<TRIPOS>BOND
     1    1    2 3   
     2    2    3 1   
     3    3    4 1   
     4    3    5 1   
     5    3    6 1   
     6    4    7 1   
     7    4    8 1   
     8    4    9 1   
     9    5   10 1   
    10    5   11 1   
    11    5   12 1   
    12    6   13 1   
    13    6   14 1   
    14    6   15 1   
@<TRIPOS>SUBSTRUCTURE
     1 TB0         1 TEMP              0 ****  ****    0 ROOT
