@<TRIPOS>MOLECULE
molecule
   29    29     1     0     0
SMALL
bcc


@<TRIPOS>ATOM
      1 C2           0.0000     0.0000     0.0000 ca         1 TB1      -0.105000
      2 C5           1.3940     0.0000     0.0000 ca         1 TB1      -0.145500
      3 C8           2.0910     0.0000     1.2080 ca         1 TB1      -0.141000
      4 C6           1.3940     0.0020     2.4160 ca         1 TB1      -0.145500
      5 C3          -0.0010     0.0030     2.4150 ca         1 TB1      -0.105000
      6 C1          -0.6890     0.0020     1.2080 ca         1 TB1      -0.070300
      7 C4          -2.1890     0.0030     1.2080 c3         1 TB1       0.185700
      8 O2          -2.6520     1.3470     1.2060 os         1 TB1      -0.437600
      9 C11         -4.0720     1.4100     1.2060 c3         1 TB1       0.029100
     10 C9          -4.5820     0.7120    -0.0380 c          1 TB1       0.835600
     11 O5          -5.7740     0.1080     0.1980 o          1 TB1      -0.830800
     12 O1          -4.0230     0.7040    -1.1260 o          1 TB1      -0.830800
     13 C7          -4.5370     2.8690     1.2940 c3         1 TB1       0.028500
     14 C10         -4.0190     3.5660     2.5450 c          1 TB1       0.876600
     15 O4          -4.4960     2.9970     3.6820 o          1 TB1      -0.807300
     16 O3          -3.2500     4.5190     2.5550 o          1 TB1      -0.807300
     17 N           -4.0350     3.6130     0.1340 nz         1 TB1      -0.794600
     18 H2          -0.5440    -0.0000    -0.9370 ha         1 TB1       0.143500
     19 H5           1.9360    -0.0020    -0.9380 ha         1 TB1       0.118500
     20 H8           3.1750    -0.0000     1.2080 ha         1 TB1       0.113000
     21 H6           1.9350     0.0020     3.3550 ha         1 TB1       0.118500
     22 H3          -0.5460     0.0050     3.3520 ha         1 TB1       0.143500
     23 H41         -2.5530    -0.5070     0.3240 h1         1 TB1       0.048700
     24 H42         -2.5520    -0.5040     2.0940 h1         1 TB1       0.048700
     25 H11         -4.4410     0.8780     2.0740 h1         1 TB1       0.106700
     26 H7          -5.6190     2.8980     1.2940 hx         1 TB1       0.110700
     27 HN1         -4.3780     3.1920    -0.7060 hn         1 TB1       0.437800
     28 HN2         -3.0340     3.5940     0.1330 hn         1 TB1       0.437800
     29 HN3         -4.3500     4.5620     0.1850 hn         1 TB1       0.437800
@<TRIPOS>BOND
     1     1     2 ar
     2     1     6 ar
     3     1    18 1
     4     2     3 ar
     5     2    19 1
     6     3     4 ar
     7     3    20 1
     8     4     5 ar
     9     4    21 1
    10     5     6 ar
    11     5    22 1
    12     6     7 1
    13     7     8 1
    14     7    23 1
    15     7    24 1
    16     8     9 1
    17     9    10 1
    18     9    13 1
    19     9    25 1
    20    10    12 1
    21    10    11 1
    22    13    17 1
    23    13    14 1
    24    13    26 1
    25    14    15 1
    26    14    16 1
    27    17    27 1
    28    17    28 1
    29    29    17 1
@<TRIPOS>SUBSTRUCTURE
     1 TB1         1 TEMP              0 ****  ****    0 ROOT
