@<TRIPOS>MOLECULE
molecule
   29    29     1     0     0
SMALL
bcc


@<TRIPOS>ATOM
      1 C1           0.0000     0.0000     0.0000 c          1 TB2       0.575900
      2 O1           1.2080     0.0000     0.0000 o          1 TB2      -0.522100
      3 C2          -0.7520     0.0000     1.3060 c3         1 TB2      -0.155100
      4 C3          -1.7090     1.1640     1.3340 ca         1 TB2      -0.094300
      5 C4          -2.9980     1.0110     0.8570 ca         1 TB2      -0.120000
      6 C5          -3.8760     2.0790     0.8820 ca         1 TB2      -0.124500
      7 C6          -3.4650     3.2990     1.3850 ca         1 TB2      -0.066300
      8 C7          -2.1770     3.4510     1.8630 ca         1 TB2      -0.124500
      9 C8          -1.3010     2.3830     1.8420 ca         1 TB2      -0.120000
     10 C9          -4.4220     4.4630     1.4130 c3         1 TB2      -0.025700
     11 C10         -5.6400     4.1020     2.2650 c3         1 TB2      -0.080767
     12 C11         -3.7220     5.6840     2.0130 c3         1 TB2      -0.080767
     13 C12         -4.8740     4.7850    -0.0140 c3         1 TB2      -0.080767
     14 H1          -0.5410    -0.0570    -0.9370 h4         1 TB2      -0.001800
     15 H2          -1.3060    -0.9260     1.4030 hc         1 TB2       0.073700
     16 H2A         -0.0500     0.0890     2.1260 hc         1 TB2       0.073700
     17 H4          -3.3200     0.0540     0.4630 ha         1 TB2       0.132000
     18 H5          -4.8850     1.9590     0.5080 ha         1 TB2       0.136000
     19 H7          -1.8560     4.4070     2.2590 ha         1 TB2       0.136000
     20 H8          -0.2910     2.5030     2.2170 ha         1 TB2       0.132000
     21 H10         -6.2180     3.3370     1.7620 hc         1 TB2       0.037478
     22 H10A        -5.3090     3.7310     3.2280 hc         1 TB2       0.037478
     23 H10B        -6.2540     4.9830     2.4090 hc         1 TB2       0.037478
     24 H11         -2.8600     5.9390     1.4090 hc         1 TB2       0.037478
     25 H11A        -4.4100     6.5210     2.0320 hc         1 TB2       0.037478
     26 H11B        -3.4020     5.4570     3.0220 hc         1 TB2       0.037478
     27 H12         -5.4410     5.7080    -0.0130 hc         1 TB2       0.037478
     28 H12A        -4.0060     4.8950    -0.6520 hc         1 TB2       0.037478
     29 H12B        -5.4960     3.9800    -0.3860 hc         1 TB2       0.037478
@<TRIPOS>BOND
     1     1     2 2
     2     1     3 1
     3     3     4 1
     4     4     5 ar
     5     4     9 ar
     6     5     6 ar
     7     6     7 ar
     8     7     8 ar
     9     7    10 1
    10     8     9 ar
    11    10    11 1
    12    10    12 1
    13    10    13 1
    14     1    14 1
    15     3    15 1
    16     3    16 1
    17     5    17 1
    18     6    18 1
    19     8    19 1
    20     9    20 1
    21    11    21 1
    22    11    22 1
    23    11    23 1
    24    12    24 1
    25    12    25 1
    26    12    26 1
    27    13    27 1
    28    13    28 1
    29    13    29 1
@<TRIPOS>SUBSTRUCTURE
     1 TB2         1 TEMP              0 ****  ****    0 ROOT
