@<TRIPOS>MOLECULE
TB2
   29    29     1     0     0
SMALL
bcc


@<TRIPOS>ATOM
      1 C1         -0.1960   -0.2710   -0.0760 c         1 TB2      0.569900
      2 O1          0.9060   -0.7570   -0.3280 o         1 TB2     -0.527100
      3 C2         -0.6300    0.0720    1.3200 c3        1 TB2     -0.159100
      4 C3         -1.5880    1.2080    1.3450 ca        1 TB2     -0.090300
      5 C4         -2.8730    1.0640    0.8070 ca        1 TB2     -0.124000
      6 C5         -3.7720    2.1250    0.8380 ca        1 TB2     -0.125000
      7 C6         -3.4150    3.3570    1.4090 ca        1 TB2     -0.060300
      8 C7         -2.1310    3.4930    1.9460 ca        1 TB2     -0.125000
      9 C8         -1.2270    2.4320    1.9150 ca        1 TB2     -0.124000
     10 C9         -4.4200    4.4780    1.4220 c3        1 TB2     -0.010700
     11 C10        -5.6580    4.0390    2.1990 c3        1 TB2     -0.086100
     12 C11        -3.8720    5.7420    2.0750 c3        1 TB2     -0.086100
     13 C12        -4.8190    4.8180   -0.0120 c3        1 TB2     -0.086100
     14 H1         -0.9460   -0.0680   -0.8740 h4        1 TB2      0.001200
     15 H2         -1.1190   -0.8440    1.7560 hc        1 TB2      0.080200
     16 H2A         0.2710    0.2980    1.9510 hc        1 TB2      0.080200
     17 H4         -3.1730    0.1050    0.3590 ha        1 TB2      0.131500
     18 H5         -4.7770    1.9910    0.4100 ha        1 TB2      0.135500
     19 H7         -1.8100    4.4410    2.4040 ha        1 TB2      0.135500
     20 H8         -0.2220    2.5620    2.3440 ha        1 TB2      0.131500
     21 H10        -6.4080    4.8670    2.2170 hc        1 TB2      0.037700
     22 H10A       -5.3840    3.7810    3.2500 hc        1 TB2      0.037700
     23 H10B       -6.1270    3.1460    1.7220 hc        1 TB2      0.037700
     24 H11        -4.6520    6.5410    2.0590 hc        1 TB2      0.037700
     25 H11A       -2.9770    6.1140    1.5220 hc        1 TB2      0.037700
     26 H11B       -3.5910    5.5460    3.1370 hc        1 TB2      0.037700
     27 H12        -5.2790    3.9330   -0.5130 hc        1 TB2      0.037700
     28 H12A       -5.5610    5.6520   -0.0120 hc        1 TB2      0.037700
     29 H12B       -3.9240    5.1360   -0.5970 hc        1 TB2      0.037700
@<TRIPOS>BOND
     1    1    2 2   
     2    1    3 1   
     3    1   14 1   
     4    3    4 1   
     5    3   15 1   
     6    3   16 1   
     7    4    5 ar  
     8    4    9 ar  
     9    5    6 ar  
    10    5   17 1   
    11    6    7 ar  
    12    6   18 1   
    13    7    8 ar  
    14    7   10 1   
    15    8    9 ar  
    16    8   19 1   
    17    9   20 1   
    18   10   11 1   
    19   10   12 1   
    20   10   13 1   
    21   11   21 1   
    22   11   22 1   
    23   11   23 1   
    24   12   24 1   
    25   12   25 1   
    26   12   26 1   
    27   13   27 1   
    28   13   28 1   
    29   13   29 1   
@<TRIPOS>SUBSTRUCTURE
     1 TB2         1 TEMP              0 ****  ****    0 ROOT
