@<TRIPOS>MOLECULE
TB6
   15    14     1     0     0
SMALL
bcc


@<TRIPOS>ATOM
      1 C1         -0.0030   -0.1740    0.0210 c3        1 TB6     -0.082100
      2 C2          1.4990    0.0940    0.0060 c3        1 TB6      0.195100
      3 C6          2.0860    0.1670    1.3850 c3        1 TB6     -0.307600
      4 P7          3.8480   -0.2670    1.2750 p5        1 TB6      1.222700
      5 O10         1.6760    1.3000   -0.7510 oh        1 TB6     -0.702800
      6 O12         4.2850    0.6640    0.1530 o         1 TB6     -0.957500
      7 O13         4.4010    0.0620    2.6410 o         1 TB6     -0.957500
      8 O14         3.8560   -1.7350    0.9160 o         1 TB6     -0.957500
      9 H1         -0.5320    0.6220    0.5960 hc        1 TB6     -0.002633
     10 H1A        -0.4140   -0.1880   -1.0170 hc        1 TB6     -0.002633
     11 H1B        -0.2000   -1.1600    0.5030 hc        1 TB6     -0.002633
     12 H2          2.0230   -0.7430   -0.5470 h1        1 TB6      0.047700
     13 H6          1.5950   -0.5560    2.0660 hc        1 TB6      0.020700
     14 H6A         2.0080    1.1870    1.8120 hc        1 TB6      0.020700
     15 HO10        2.6380    1.4800   -0.6490 ho        1 TB6      0.467000
@<TRIPOS>BOND
     1    1    2 1   
     2    1    9 1   
     3    1   10 1   
     4    1   11 1   
     5    2    3 1   
     6    2    5 1   
     7    2   12 1   
     8    3    4 1   
     9    3   13 1   
    10    3   14 1   
    11    4    6 1   
    12    4    7 1   
    13    4    8 1   
    14    5   15 1   
@<TRIPOS>SUBSTRUCTURE
     1 TB6         1 TEMP              0 ****  ****    0 ROOT
