@<TRIPOS>MOLECULE
molecule
   15    14     1     0     0
SMALL
bcc


@<TRIPOS>ATOM
      1 C1           0.0000     0.0000     0.0000 c3         1 TB6      -0.126100
      2 C2           1.5300     0.0000     0.0000 c3         1 TB6       0.178100
      3 C6           2.0400     0.0000     1.4420 c3         1 TB6      -0.240600
      4 P7           3.8570    -0.1500     1.4450 p5         1 TB6       1.056700
      5 O10          2.0060     1.1670    -0.6730 oh         1 TB6      -0.564800
      6 O12          4.5030     1.1590     0.7650 o          1 TB6      -0.919500
      7 O13          4.3820    -0.2830     2.9610 o          1 TB6      -0.919500
      8 O14          4.2530    -1.3510     0.6780 o          1 TB6      -0.919500
      9 H1          -0.3610    -0.0560    -1.0200 hc         1 TB6       0.004033
     10 H1A         -0.3610    -0.8550     0.5580 hc         1 TB6       0.004033
     11 H1B         -0.3610     0.9110     0.4620 hc         1 TB6       0.004033
     12 H2           1.8910    -0.8840    -0.5110 h1         1 TB6       0.039700
     13 H6           1.7530     0.9260     1.9260 hc         1 TB6       0.024700
     14 H6A          1.6080    -0.8370     1.9780 hc         1 TB6       0.024700
     15 HO10         2.0260     1.0080    -1.6020 ho         1 TB6       0.354000
@<TRIPOS>BOND
     1     1     2 1
     2     1     9 1
     3     1    10 1
     4     1    11 1
     5     3     2 1
     6     2     5 1
     7     2    12 1
     8     3     4 1
     9     3    13 1
    10     3    14 1
    11     8     4 1
    12     4     6 1
    13     4     7 1
    14     5    15 1
@<TRIPOS>SUBSTRUCTURE
     1 TB6         1 TEMP              0 ****  ****    0 ROOT
