@<TRIPOS>MOLECULE
molecule
   42    44     1     0     0
SMALL
bcc


@<TRIPOS>ATOM
      1 C1           0.0000     0.0000     0.0000 c3         1 TB7      -0.107767
      2 C2           1.5300     0.0000     0.0000 c3         1 TB7       0.177800
      3 C3           2.0410     0.0000     1.4420 c3         1 TB7      -0.107767
      4 C4           2.0400    -1.2500    -0.7220 c3         1 TB7      -0.107767
      5 O5           2.0150     1.1850    -0.6850 os         1 TB7      -0.429900
      6 C6           1.6530     2.3770    -0.1730 c          1 TB7       0.797100
      7 O7           0.9530     2.4250     0.8180 o          1 TB7      -0.606000
      8 N8           2.0690     3.5170    -0.7610 nj         1 TB7      -0.515800
      9 C9           1.8970     4.9570    -0.5190 cy         1 TB7       0.094500
     10 C10          2.1060     5.1800    -2.0220 cy         1 TB7       0.208500
     11 C11          2.8990     3.8660    -1.9240 cy         1 TB7       0.094500
     12 N12          2.9250     6.3500    -2.3490 nu         1 TB7      -0.861200
     13 C13          2.7840     6.9680    -3.5650 cc         1 TB7       0.744800
     14 N14          3.5640     8.0540    -3.8340 ns         1 TB7      -0.494400
     15 C15          3.4580     8.6940    -5.0210 c          1 TB7       0.727100
     16 O16          4.1450     9.6650    -5.2810 o          1 TB7      -0.617500
     17 C17          2.4820     8.1710    -5.9870 ca         1 TB7      -0.361900
     18 C18          2.2940     8.7570    -7.2390 ca         1 TB7      -0.002000
     19 C19          1.3520     8.1940    -8.0820 ca         1 TB7      -0.307300
     20 C20          0.6350     7.0840    -7.6640 ca         1 TB7       0.477200
     21 N21          0.8240     6.5430    -6.4780 nb         1 TB7      -0.696000
     22 C22          1.7170     7.0390    -5.6240 ca         1 TB7       0.722300
     23 N23          1.9130     6.4820    -4.4140 nd         1 TB7      -0.794700
     24 H11C        -0.3610     0.6650     0.7750 hc         1 TB7       0.050811
     25 H12C        -0.3610     0.3390    -0.9630 hc         1 TB7       0.050811
     26 H13C        -0.3610    -1.0040     0.1880 hc         1 TB7       0.050811
     27 H31C         1.4660     0.7060     2.0290 hc         1 TB7       0.050811
     28 H32C         3.0860     0.2860     1.4550 hc         1 TB7       0.050811
     29 H33C         1.9320    -0.9920     1.8640 hc         1 TB7       0.050811
     30 H41C         3.1230    -1.2510    -0.7210 hc         1 TB7       0.050811
     31 H42C         1.6790    -1.2500    -1.7430 hc         1 TB7       0.050811
     32 H43C         1.6790    -2.1340    -0.2110 hc         1 TB7       0.050811
     33 H91C         0.8970     5.2120    -0.1890 h1         1 TB7       0.065700
     34 H92C         2.6910     5.3800     0.0850 h1         1 TB7       0.065700
     35 H111         2.7370     3.2110    -2.7710 h1         1 TB7       0.065700
     36 H112         3.9400     4.0200    -1.6680 h1         1 TB7       0.065700
     37 H10          1.1930     5.0840    -2.5980 h1         1 TB7       0.138700
     38 H12          3.5680     6.7150    -1.6740 hn         1 TB7       0.447800
     39 H14          4.2180     8.3790    -3.1490 hn         1 TB7       0.332500
     40 H18          2.8680     9.6240    -7.5420 ha         1 TB7       0.158000
     41 H19          1.1760     8.6190    -9.0630 ha         1 TB7       0.143000
     42 H20         -0.1010     6.6500    -8.3300 h4         1 TB7       0.027100
@<TRIPOS>BOND
     1     1     2 1
     2     2     3 1
     3     2     4 1
     4     2     5 1
     5     5     6 1
     6     6     7 2
     7     6     8 1
     8     8     9 1
     9     8    11 1
    10     9    10 1
    11    10    11 1
    12    10    12 1
    13    12    13 1
    14    13    14 1
    15    13    23 2
    16    14    15 1
    17    15    16 2
    18    15    17 1
    19    17    18 ar
    20    17    22 ar
    21    18    19 ar
    22    19    20 ar
    23    20    21 ar
    24    21    22 ar
    25    22    23 1
    26     1    24 1
    27     1    25 1
    28     1    26 1
    29     3    27 1
    30     3    28 1
    31     3    29 1
    32     4    30 1
    33     4    31 1
    34     4    32 1
    35     9    33 1
    36     9    34 1
    37    11    35 1
    38    11    36 1
    39    10    37 1
    40    12    38 1
    41    14    39 1
    42    18    40 1
    43    19    41 1
    44    20    42 1
@<TRIPOS>SUBSTRUCTURE
     1 TB7         1 TEMP              0 ****  ****    0 ROOT
