@<TRIPOS>MOLECULE
TB8
   21    23     1     0     0
SMALL
bcc


@<TRIPOS>ATOM
      1 Cl1          0.0000     0.0000     0.0000 cl         1 TB8       0.087000
      2 C10          1.7360     0.0000     0.0000 c2         1 TB8      -0.165000
      3 C09          2.4300     0.0000     1.1940 c2         1 TB8      -0.070000
      4 C08          3.8120     0.0000     1.1940 c2         1 TB8      -0.116000
      5 C07          4.5130     0.0000     0.0010 c2         1 TB8      -0.076000
      6 C06          3.8370    -0.0000    -1.2000 c2         1 TB8      -0.135000
      7 C05          2.4380    -0.0050    -1.2120 c3         1 TB8      -0.022000
      8 C04          1.7080    -0.0110    -2.4890 c2         1 TB8       0.006000
      9 C03          2.3880    -0.0160    -3.6530 c2         1 TB8      -0.196000
     10 C02          1.6620    -0.0230    -4.9240 c3         1 TB8       0.275000
     11 O01          0.4440    -0.0230    -4.9300 o          1 TB8      -0.398000
     12 N12          2.3410    -0.0280    -6.0880 n7         1 TB8       0.089000
     13 O13          1.6390    -0.0330    -7.3190 oh         1 TB8      -0.240000
     14 H1           1.8890     0.0000     2.1330 ha         1 TB8       0.115000
     15 H2           4.3500     0.0000     2.1350 ha         1 TB8       0.108000
     16 H3           5.5960     0.0020     0.0110 ha         1 TB8       0.106000
     17 H4           4.3880    -0.0020    -2.1330 ha         1 TB8       0.123000
     18 H5           2.1730    -0.8840    -2.0460 DU         1 TB8       0.138000
     19 H6           1.9230     0.8560    -4.0970 DU         1 TB8       0.100000
     20 H7           3.3420    -0.0350    -6.0830 hn         1 TB8       0.075000
     21 H8           2.2460    -0.1780    -8.0260 ho         1 TB8       0.193000
@<TRIPOS>BOND
     1     1     2 1   
     2     2     3 1   
     3     2     7 1   
     4     3     4 1   
     5     3    14 1   
     6     4     5 1   
     7     4    15 1   
     8     5     6 1   
     9     5    16 1   
    10     6     7 1   
    11     6    17 1   
    12     7     8 1   
    13     7    18 1   
    14     8     9 1   
    15     8    18 1   
    16     9    10 1   
    17     9    19 1   
    18    10    11 1   
    19    10    12 1   
    20    10    19 1   
    21    12    13 1   
    22    12    20 1   
    23    13    21 1   
@<TRIPOS>SUBSTRUCTURE
     1 TB8         1 TEMP              0 ****  ****    0 ROOT
