@<TRIPOS>MOLECULE
molecule
   21    21     1     0     0
SMALL
bcc


@<TRIPOS>ATOM
      1 Cl1          0.0000     0.0000     0.0000 cl         1 TB8      -0.092400
      2 C10          1.7360     0.0000     0.0000 ca         1 TB8       0.049400
      3 C09          2.4300     0.0000     1.1940 ca         1 TB8      -0.123000
      4 C08          3.8120     0.0000     1.1940 ca         1 TB8      -0.107000
      5 C07          4.5130     0.0000     0.0010 ca         1 TB8      -0.130000
      6 C06          3.8370    -0.0000    -1.2000 ca         1 TB8      -0.104000
      7 C05          2.4380    -0.0050    -1.2120 ca         1 TB8      -0.073800
      8 C04          1.7080    -0.0110    -2.4890 ce         1 TB8      -0.015200
      9 C03          2.3880    -0.0160    -3.6530 cf         1 TB8      -0.249200
     10 C02          1.6620    -0.0230    -4.9240 c          1 TB8       0.678300
     11 O01          0.4440    -0.0230    -4.9300 o          1 TB8      -0.579100
     12 N12          2.3410    -0.0280    -6.0880 ns         1 TB8      -0.469400
     13 O13          1.6390    -0.0330    -7.3190 oh         1 TB8      -0.360100
     14 H1           1.8890     0.0000     2.1330 ha         1 TB8       0.148000
     15 H2           4.3500     0.0000     2.1350 ha         1 TB8       0.139000
     16 H3           5.5960     0.0020     0.0110 ha         1 TB8       0.136000
     17 H4           4.3880    -0.0020    -2.1330 ha         1 TB8       0.138000
     18 H5           0.6250    -0.0120    -2.4940 ha         1 TB8       0.175000
     19 H6           3.4710    -0.0160    -3.6480 ha         1 TB8       0.125000
     20 H7           3.3420    -0.0280    -6.0840 hn         1 TB8       0.318500
     21 H8           2.2560    -0.0360    -8.0320 ho         1 TB8       0.397000
@<TRIPOS>BOND
     1     4     3 ar
     2     4     5 ar
     3     3     2 ar
     4     5     6 ar
     5     2     1 1
     6     2     7 ar
     7     6     7 ar
     8     7     8 1
     9     9     8 2
    10     9    10 1
    11    13    12 1
    12    12    10 1
    13    10    11 2
    14     3    14 1
    15     4    15 1
    16     5    16 1
    17     6    17 1
    18     8    18 1
    19     9    19 1
    20    12    20 1
    21    13    21 1
@<TRIPOS>SUBSTRUCTURE
     1 TB8         1 TEMP              0 ****  ****    0 ROOT
