@<TRIPOS>MOLECULE
TB9
   41    42     1     0     0
SMALL
bcc


@<TRIPOS>ATOM
      1 N1         -0.4660    0.7130    0.6650 n         1 TB9     -0.215000
      2 C1A         0.9310    0.9150    0.4830 c2        1 TB9     -0.335000
      3 C2         -0.7100    0.2170    1.9660 c2        1 TB9      0.097000
      4 S2         -2.1570   -0.1150    2.5340 s         1 TB9     -0.199000
      5 N3          0.5110    0.0740    2.6540 n         1 TB9     -0.268000
      6 C3A         1.6320    0.6040    1.8400 c3        1 TB9      0.181000
      7 C4          0.6710   -0.9960    3.6000 c3        1 TB9     -0.035000
      8 C5          1.9240   -0.8580    4.4790 c3        1 TB9     -0.045000
      9 N6          3.1280   -1.3580    3.8550 n3        1 TB9     -0.261000
     10 C7          3.4490   -1.0600    2.5430 c2        1 TB9      0.042000
     11 C7A         2.8130   -0.2960    1.6180 c2        1 TB9     -0.240000
     12 C8          3.3450   -0.3080    0.2550 c2        1 TB9     -0.096000
     13 C9          3.8990    0.7660   -0.3390 c2        1 TB9     -0.120000
     14 C10         1.5950    1.1580   -0.6540 c1        1 TB9      0.164000
     15 C11         2.1300    1.9360    2.4340 c3        1 TB9     -0.206000
     16 C12         4.2390   -1.5830    4.7640 c3        1 TB9     -0.003000
     17 C13         4.9200   -0.3610    5.2910 c2        1 TB9     -0.224000
     18 C14         5.9120   -0.4270    6.1940 c2        1 TB9     -0.089000
     19 C15         6.5840    0.7920    6.7050 c3        1 TB9     -0.187000
     20 C16         6.3980   -1.7160    6.7420 c3        1 TB9     -0.187000
     21 HN1        -1.1090    1.3630    0.2700 hn        1 TB9      0.247000
     22 H41         1.2830    2.6460    2.5870 hc        1 TB9      0.086667
     23 H42         0.6780   -1.9980    3.0780 h1        1 TB9      0.117000
     24 H5         -0.2340   -0.9690    4.2790 h1        1 TB9      0.117000
     25 H71         1.7420   -1.4840    5.4000 h1        1 TB9      0.094500
     26 H72         4.3720   -1.5910    2.2110 h4        1 TB9      0.143000
     27 H8          3.2910   -1.2820   -0.2650 ha        1 TB9      0.152000
     28 H10         4.0150    1.7520    0.1340 h4        1 TB9      0.159000
     29 H111        2.0520    0.2120    4.8160 h1        1 TB9      0.094500
     30 H112        2.8610    2.3980    1.7290 hc        1 TB9      0.086667
     31 H113        2.6360    1.7580    3.4130 hc        1 TB9      0.086667
     32 H121        3.8450   -2.1870    5.6350 h1        1 TB9      0.102500
     33 H122        5.0040   -2.2250    4.2340 h1        1 TB9      0.102500
     34 H13         4.5770    0.6120    4.9020 ha        1 TB9      0.132000
     35 H151        6.1520    1.7210    6.2590 hc        1 TB9      0.084833
     36 H152        7.6760    0.7560    6.4600 hc        1 TB9      0.084833
     37 H153        6.4770    0.8500    7.8170 hc        1 TB9      0.084833
     38 H161        6.7210   -2.3970    5.9140 hc        1 TB9      0.084833
     39 H162        7.2650   -1.5640    7.4310 hc        1 TB9      0.084833
     40 H163        5.5820   -2.2290    7.3110 hc        1 TB9      0.084833
     41 CL9         4.5770    0.7010   -1.8870 cl        1 TB9     -0.005000
@<TRIPOS>BOND
     1    1    2 1   
     2    1    3 1   
     3    1   21 1   
     4    2    6 1   
     5    2   14 1   
     6    3    4 1   
     7    3    5 1   
     8    5    6 1   
     9    5    7 1   
    10    6   11 1   
    11    6   15 1   
    12    7    8 1   
    13    7   23 1   
    14    7   24 1   
    15    8    9 1   
    16    8   25 1   
    17    8   29 1   
    18    9   10 1   
    19    9   16 1   
    20   10   11 1   
    21   10   26 1   
    22   11   12 1   
    23   12   13 1   
    24   12   27 1   
    25   13   28 1   
    26   13   41 1   
    27   15   22 1   
    28   15   30 1   
    29   15   31 1   
    30   16   17 1   
    31   16   32 1   
    32   16   33 1   
    33   17   18 1   
    34   17   34 1   
    35   18   19 1   
    36   18   20 1   
    37   19   35 1   
    38   19   36 1   
    39   19   37 1   
    40   20   38 1   
    41   20   39 1   
    42   20   40 1   
@<TRIPOS>SUBSTRUCTURE
     1 TB9         1 TEMP              0 ****  ****    0 ROOT
