@<TRIPOS>MOLECULE
molecule
   53    52     1     0     0
SMALL
bcc


@<TRIPOS>ATOM
      1 N1           0.0000     0.0000     0.0000 n4         1 TBA      -0.628800
      2 C11          1.4830     0.0000     0.0000 c3         1 TBA       0.125050
      3 C12          1.9820     0.0000     1.4370 c3         1 TBA      -0.112400
      4 C21         -0.5460    -1.2430     0.7170 c3         1 TBA       0.125050
      5 C22         -0.0530    -2.4900    -0.0000 c3         1 TBA      -0.112400
      6 C31         -0.5470     0.0010    -1.4340 c3         1 TBA       0.125050
      7 C32         -2.0680     0.0010    -1.3880 c3         1 TBA      -0.112400
      8 C41         -0.5460     1.2420     0.7190 c3         1 TBA       0.125050
      9 C42         -0.0520     2.4910     0.0010 c3         1 TBA      -0.112400
     10 C13          3.5090     0.0460     1.4880 c3         1 TBA      -0.077150
     11 C14          4.0180     0.0830     2.9200 c3         1 TBA      -0.090100
     12 C23         -0.6090    -3.7550     0.6520 c3         1 TBA      -0.077150
     13 C24         -0.1520    -5.0060    -0.0780 c3         1 TBA      -0.090100
     14 C33         -2.6590    -0.0450    -2.7970 c3         1 TBA      -0.077150
     15 C34         -4.1780    -0.0820    -2.7630 c3         1 TBA      -0.090100
     16 C43         -0.5340     3.7570     0.7090 c3         1 TBA      -0.077150
     17 C44         -0.0160     5.0100     0.0210 c3         1 TBA      -0.090100
     18 H111         1.8460    -0.8850    -0.5090 hx         1 TBA       0.097950
     19 H112         1.8460     0.8850    -0.5090 hx         1 TBA       0.097950
     20 H121         1.5830     0.8660     1.9520 hc         1 TBA       0.059325
     21 H122         1.6370    -0.8990     1.9330 hc         1 TBA       0.059325
     22 H211        -1.6290    -1.2220     0.7040 hx         1 TBA       0.097950
     23 H212        -0.1960    -1.2520     1.7430 hx         1 TBA       0.097950
     24 H221        -0.3710    -2.4540    -1.0350 hc         1 TBA       0.059325
     25 H222         1.0300    -2.5180     0.0380 hc         1 TBA       0.059325
     26 H311        -0.2000    -0.8840    -1.9540 hx         1 TBA       0.097950
     27 H312        -0.2000     0.8860    -1.9530 hx         1 TBA       0.097950
     28 H321        -2.4070    -0.8650    -0.8320 hc         1 TBA       0.059325
     29 H322        -2.4080     0.9000    -0.8890 hc         1 TBA       0.059325
     30 H411        -1.6290     1.2220     0.7060 hx         1 TBA       0.097950
     31 H412        -0.1960     1.2510     1.7440 hx         1 TBA       0.097950
     32 H421        -0.4260     2.4880    -1.0160 hc         1 TBA       0.059325
     33 H422         1.0310     2.4840    -0.0190 hc         1 TBA       0.059325
     34 H131         3.9060    -0.8320     0.9930 hc         1 TBA       0.051700
     35 H132         3.8530     0.9320     0.9670 hc         1 TBA       0.051700
     36 H141         5.1010     0.0800     2.9180 hc         1 TBA       0.048367
     37 H142         3.6560    -0.7870     3.4540 hc         1 TBA       0.048367
     38 H143         3.6600     0.9810     3.4080 hc         1 TBA       0.048367
     39 H231        -0.2700    -3.8010     1.6800 hc         1 TBA       0.051700
     40 H232        -1.6920    -3.7130     0.6380 hc         1 TBA       0.051700
     41 H241        -0.5230    -4.9870    -1.0960 hc         1 TBA       0.048367
     42 H242        -0.5370    -5.8820     0.4300 hc         1 TBA       0.048367
     43 H243         0.9310    -5.0430    -0.0900 hc         1 TBA       0.048367
     44 H331        -2.3390     0.8340    -3.3430 hc         1 TBA       0.051700
     45 H332        -2.2950    -0.9290    -3.3050 hc         1 TBA       0.051700
     46 H341        -4.5060    -0.9860    -2.2630 hc         1 TBA       0.048367
     47 H342        -4.5630    -0.0690    -3.7750 hc         1 TBA       0.048367
     48 H343        -4.5480     0.7820    -2.2250 hc         1 TBA       0.048367
     49 H431        -0.1820     3.7440     1.7340 hc         1 TBA       0.051700
     50 H432        -1.6170     3.7730     0.7060 hc         1 TBA       0.051700
     51 H441         1.0680     5.0080     0.0350 hc         1 TBA       0.048367
     52 H442        -0.3640     5.0300    -1.0040 hc         1 TBA       0.048367
     53 H443        -0.3810     5.8860     0.5440 hc         1 TBA       0.048367
@<TRIPOS>BOND
     1     1     2 1
     2     1     4 1
     3     1     6 1
     4     1     8 1
     5     2     3 1
     6     2    18 1
     7     2    19 1
     8     3    10 1
     9     3    20 1
    10     3    21 1
    11     4     5 1
    12     4    22 1
    13     4    23 1
    14     5    12 1
    15     5    24 1
    16     5    25 1
    17     6     7 1
    18     6    26 1
    19     6    27 1
    20     7    14 1
    21     7    28 1
    22     7    29 1
    23     8     9 1
    24     8    30 1
    25     8    31 1
    26     9    16 1
    27     9    32 1
    28     9    33 1
    29    10    11 1
    30    10    34 1
    31    10    35 1
    32    11    36 1
    33    11    37 1
    34    11    38 1
    35    12    13 1
    36    12    39 1
    37    12    40 1
    38    13    41 1
    39    13    42 1
    40    13    43 1
    41    14    15 1
    42    14    44 1
    43    14    45 1
    44    15    46 1
    45    15    47 1
    46    15    48 1
    47    16    17 1
    48    16    49 1
    49    16    50 1
    50    17    51 1
    51    17    52 1
    52    17    53 1
@<TRIPOS>SUBSTRUCTURE
     1 TBA         1 TEMP              0 ****  ****    0 ROOT
