@<TRIPOS>MOLECULE
TBB
   18    17     1     0     0
SMALL
bcc


@<TRIPOS>ATOM
      1 C24          0.0000     0.0000     0.0000 c          1 TBB       0.980600
      2 N30          1.3470     0.0000     0.0000 ns         1 TBB      -0.291900
      3 O31         -0.6080     0.0000     1.0520 o          1 TBB      -0.924300
      4 C35          2.0790    -0.0060     1.2690 c3         1 TBB       0.039400
      5 C40          1.7100     1.2400     2.0770 c3         1 TBB      -0.018767
      6 C41          1.7090    -1.2590     2.0650 c3         1 TBB      -0.018767
      7 C42          3.5840    -0.0050     0.9900 c3         1 TBB      -0.018767
      8 H27          1.8480    -0.0210    -0.8660 hn         1 TBB       0.154500
      9 H31          1.6760     2.0990     1.4190 hc         1 TBB       0.002589
     10 H32          2.4540     1.4040     2.8480 hc         1 TBB       0.002589
     11 H33          0.7390     1.0980     2.5370 hc         1 TBB       0.002589
     12 H34          2.4500    -1.4290     2.8370 hc         1 TBB       0.002589
     13 H35          1.6800    -2.1140     1.4000 hc         1 TBB       0.002589
     14 H36          0.7370    -1.1230     2.5220 hc         1 TBB       0.002589
     15 H37          3.8460    -0.8880     0.4200 hc         1 TBB       0.002589
     16 H38          4.1250    -0.0070     1.9290 hc         1 TBB       0.002589
     17 H39          3.8460     0.8810     0.4240 hc         1 TBB       0.002589
     18 OXT         -0.6730     0.0050    -1.1660 o          1 TBB      -0.924300
@<TRIPOS>BOND
     1     1     2 1   
     2     1     3 1   
     3     1    18 1   
     4     2     4 1   
     5     2     8 1   
     6     4     5 1   
     7     4     6 1   
     8     4     7 1   
     9     5     9 1   
    10     5    10 1   
    11     5    11 1   
    12     6    12 1   
    13     6    13 1   
    14     6    14 1   
    15     7    15 1   
    16     7    16 1   
    17     7    17 1   
@<TRIPOS>SUBSTRUCTURE
     1 TBB         1 TEMP              0 ****  ****    0 ROOT
