@<TRIPOS>MOLECULE
molecule
   33    33     1     0     0
SMALL
bcc


@<TRIPOS>ATOM
      1 S1           1.8130     0.0000     0.0000 s6         1 TBE       1.042000
      2 O12          2.2240    -1.1350     0.7790 o          1 TBE      -0.630300
      3 O13          2.2230     0.2180    -1.3590 o          1 TBE      -0.630300
      4 C2           0.0000     0.0000     0.0000 c3         1 TBE      -0.189200
      5 C3          -0.4670     0.0000     1.4910 c3         1 TBE       0.102500
      6 N4          -0.0850    -1.2320     2.1600 nu         1 TBE      -0.555000
      7 C5          -0.3750    -1.4660     3.4320 c2         1 TBE      -0.037000
      8 C20         -0.4390     1.3080    -0.6850 c3         1 TBE      -0.063100
      9 C14         -0.5250    -1.2550    -0.7590 c3         1 TBE       0.071300
     10 N15         -1.9770    -1.3970    -0.8710 na         1 TBE       0.121400
     11 N16         -2.6530    -2.0580     0.0670 nc         1 TBE      -0.197800
     12 N17         -3.9300    -2.0270    -0.2990 nd         1 TBE      -0.353000
     13 C18         -4.0140    -1.3350    -1.4750 cd         1 TBE       0.247200
     14 C19         -2.7630    -0.9230    -1.8580 cc         1 TBE      -0.245600
     15 C9           0.1020     1.1480     2.3130 c          1 TBE       0.871600
     16 O10         -0.7150     2.2330     2.3290 o          1 TBE      -0.791800
     17 O11          1.1770     1.1210     2.9000 o          1 TBE      -0.791800
     18 C6          -0.0730    -2.5570     4.1420 ce         1 TBE      -0.485200
     19 C7           0.6640    -3.6570     3.4910 c          1 TBE       0.522100
     20 O8           0.9670    -4.6800     4.0930 o          1 TBE      -0.587100
     21 H3          -1.5470     0.0750     1.5070 h1         1 TBE       0.131700
     22 HN4          0.4120    -1.9290     1.6420 hn         1 TBE       0.317800
     23 H5           0.6150    -1.5540     3.0010 h4         1 TBE       0.377000
     24 H201        -1.4670     1.5240    -0.4250 hc         1 TBE       0.060367
     25 H202         0.1970     2.1200    -0.3540 hc         1 TBE       0.060367
     26 H203        -0.3530     1.1980    -1.7600 hc         1 TBE       0.060367
     27 H141        -0.1140    -1.2340    -1.7610 h1         1 TBE       0.073700
     28 H142        -0.1410    -2.1340    -0.2560 h1         1 TBE       0.073700
     29 H18         -4.9290    -1.1420    -2.0210 h4         1 TBE       0.041100
     30 H19         -2.4770    -0.3560    -2.7360 h4         1 TBE       0.190000
     31 H6          -0.5280    -3.3050     3.5050 ha         1 TBE       0.129000
     32 H7           0.9430    -3.5540     2.4490 h4         1 TBE      -0.104800
     33 HS1          2.1720     1.0660     0.7050 hs         1 TBE       0.167800
@<TRIPOS>BOND
     1     1     2 2
     2     1     3 2
     3     1     4 1
     4     4     5 1
     5     4     8 1
     6     4     9 1
     7     5     6 1
     8     5    15 1
     9     5    21 1
    10     6     7 1
    11     6    22 1
    12     7    18 2
    13     7    23 1
    14     8    24 1
    15     8    25 1
    16     8    26 1
    17     9    10 1
    18     9    27 1
    19     9    28 1
    20    10    11 1
    21    10    14 1
    22    11    12 2
    23    12    13 1
    24    13    14 2
    25    13    29 1
    26    14    30 1
    27    15    16 1
    28    15    17 1
    29    18    19 1
    30    18    31 1
    31    19    20 2
    32    19    32 1
    33    33     1 1
@<TRIPOS>SUBSTRUCTURE
     1 TBE         1 TEMP              0 ****  ****    0 ROOT
