@<TRIPOS>MOLECULE
molecule
   17    16     1     0     0
SMALL
bcc


@<TRIPOS>ATOM
      1 C            0.0000     0.0000     0.0000 c          1 TBF       0.640900
      2 O1           1.2080     0.0000     0.0000 o          1 TBF      -0.498000
      3 O           -0.6720     0.0000     1.1620 os         1 TBF      -0.420900
      4 C'          -2.1210     0.0000     1.0850 c3         1 TBF       0.150800
      5 C1          -2.5930    -1.2490     0.3380 c3         1 TBF      -0.107767
      6 C2          -2.7070     0.0010     2.5000 c3         1 TBF      -0.107767
      7 C3          -2.5930     1.2490     0.3380 c3         1 TBF      -0.107767
      8 H           -0.5410    -0.0000    -0.9380 h5         1 TBF       0.007200
      9 H11         -2.4010    -1.1290    -0.7220 hc         1 TBF       0.049367
     10 H12         -3.6550    -1.3860     0.4990 hc         1 TBF       0.049367
     11 H13         -2.0560    -2.1140     0.7070 hc         1 TBF       0.049367
     12 H21         -2.3740    -0.8840     3.0290 hc         1 TBF       0.049367
     13 H22         -2.3730     0.8850     3.0280 hc         1 TBF       0.049367
     14 H23         -3.7890     0.0010     2.4420 hc         1 TBF       0.049367
     15 H31         -2.4010     1.1300    -0.7220 hc         1 TBF       0.049367
     16 H32         -3.6550     1.3870     0.4980 hc         1 TBF       0.049367
     17 H33         -2.0570     2.1150     0.7070 hc         1 TBF       0.049367
@<TRIPOS>BOND
     1     1     2 2
     2     1     3 1
     3     1     8 1
     4     3     4 1
     5     4     5 1
     6     4     6 1
     7     4     7 1
     8     5     9 1
     9     5    10 1
    10     5    11 1
    11     6    12 1
    12     6    13 1
    13     6    14 1
    14     7    15 1
    15     7    16 1
    16     7    17 1
@<TRIPOS>SUBSTRUCTURE
     1 TBF         1 TEMP              0 ****  ****    0 ROOT
