@<TRIPOS>MOLECULE
TBF
   17    16     1     0     0
SMALL
bcc


@<TRIPOS>ATOM
      1 C           0.0030   -0.0050   -0.0270 c         1 TBF      0.621900
      2 O1          1.2200   -0.0050    0.1380 o         1 TBF     -0.495000
      3 O          -0.7070    0.0010    1.1420 os        1 TBF     -0.427900
      4 C'         -2.1500    0.0010    1.0430 c3        1 TBF      0.153800
      5 C1         -2.6310   -1.2560    0.3350 c3        1 TBF     -0.112433
      6 C2         -2.6170    0.0060    2.4950 c3        1 TBF     -0.112433
      7 C3         -2.6290    1.2550    0.3270 c3        1 TBF     -0.112433
      8 H          -0.5430   -0.0090   -0.9870 h5        1 TBF      0.037200
      9 H11        -2.3580   -1.2350   -0.7470 hc        1 TBF      0.049922
     10 H12        -2.1690   -2.1580    0.8030 hc        1 TBF      0.049922
     11 H13        -3.7410   -1.3320    0.4200 hc        1 TBF      0.049922
     12 H21        -2.2330   -0.8990    3.0220 hc        1 TBF      0.049922
     13 H22        -3.7320    0.0090    2.5250 hc        1 TBF      0.049922
     14 H23        -2.2290    0.9130    3.0180 hc        1 TBF      0.049922
     15 H31        -3.7400    1.3300    0.4080 hc        1 TBF      0.049922
     16 H32        -2.3530    1.2290   -0.7540 hc        1 TBF      0.049922
     17 H33        -2.1690    2.1590    0.7920 hc        1 TBF      0.049922
@<TRIPOS>BOND
     1    1    2 2   
     2    1    3 1   
     3    1    8 1   
     4    3    4 1   
     5    4    5 1   
     6    4    6 1   
     7    4    7 1   
     8    5    9 1   
     9    5   10 1   
    10    5   11 1   
    11    6   12 1   
    12    6   13 1   
    13    6   14 1   
    14    7   15 1   
    15    7   16 1   
    16    7   17 1   
@<TRIPOS>SUBSTRUCTURE
     1 TBF         1 TEMP              0 ****  ****    0 ROOT
