@<TRIPOS>MOLECULE
TBH
   88    89     1     0     0
SMALL
bcc


@<TRIPOS>ATOM
      1 O43          0.0000     0.0000     0.0000 o          1 TBH      -0.883300
      2 C27          1.2150     0.0000     0.0000 c          1 TBH       0.969200
      3 O42          1.8880     0.0000     1.1680 o          1 TBH      -0.883300
      4 C6           1.9530    -0.0010    -1.2750 ca         1 TBH      -0.162600
      5 C5           3.3510    -0.0070    -1.2790 ca         1 TBH      -0.044000
      6 C1           1.2580    -0.0020    -2.4930 ca         1 TBH       0.174100
      7 O9          -0.0980    -0.0010    -2.5020 os         1 TBH      -0.165900
      8 C23         -0.5020    -0.0020    -3.8730 c3         1 TBH       0.038400
      9 C24         -2.0070    -0.0020    -3.9540 c          1 TBH       0.970600
     10 O25         -2.6670    -0.0010    -2.9410 o          1 TBH      -0.895300
     11 O26         -2.6160    -0.0030    -5.1500 o          1 TBH      -0.895300
     12 C2           1.9630    -0.0020    -3.6870 ca         1 TBH      -0.284000
     13 C3           3.3430    -0.0020    -3.6760 ca         1 TBH      -0.070000
     14 C4           4.0350    -0.0020    -2.4760 ca         1 TBH      -0.206300
     15 C7           5.5420    -0.0020    -2.4780 c3         1 TBH       0.056900
     16 C8           6.0530     1.4400    -2.4790 c3         1 TBH       0.106500
     17 C11          7.5770     1.4410    -2.3560 c3         1 TBH       0.295300
     18 N13          8.1550     0.6060    -3.4180 n7         1 TBH      -0.585200
     19 C15          9.3740     1.2870    -3.8740 c3         1 TBH       0.128800
     20 C16         10.0300     0.4660    -4.9860 c3         1 TBH      -0.031400
     21 C17         11.3000     1.1750    -5.4620 c3         1 TBH      -0.029400
     22 C18         11.9570     0.3550    -6.5740 c3         1 TBH      -0.028400
     23 C19         13.2260     1.0640    -7.0490 c3         1 TBH       0.005900
     24 O14          7.9520     0.9180    -1.0810 oh         1 TBH      -0.583800
     25 N10          5.6610     2.0960    -3.7340 n7         1 TBH      -0.552200
     26 C12          5.6580     3.5420    -3.4710 c3         1 TBH       0.284300
     27 O20          6.8670     4.1190    -3.9670 oh         1 TBH      -0.615800
     28 C21          4.4590     4.1850    -4.1730 c3         1 TBH       0.106500
     29 N22          4.5220     5.6430    -4.0100 n7         1 TBH      -0.575200
     30 C35          3.9050     5.9500    -2.7120 c3         1 TBH       0.506100
     31 O36          4.8260     5.6440    -1.6630 oh         1 TBH      -0.658800
     32 O37          3.5680     7.3370    -2.6620 os         1 TBH      -0.383600
     33 C38          2.4650     7.4620    -1.7620 c3         1 TBH       0.147800
     34 C40          2.8430     6.8640    -0.4050 c3         1 TBH      -0.037100
     35 C39          2.1130     8.9410    -1.5870 c3         1 TBH      -0.037100
     36 C41          1.2570     6.7140    -2.3300 c3         1 TBH      -0.037100
     37 C28          4.4930     3.8350    -5.6620 c3         1 TBH       0.031900
     38 C29          3.2740     4.4060    -6.3390 ca         1 TBH      -0.078300
     39 C30          3.3440     5.6360    -6.9660 ca         1 TBH      -0.092000
     40 C31          2.2250     6.1590    -7.5880 ca         1 TBH      -0.107000
     41 C32          1.0370     5.4530    -7.5810 ca         1 TBH      -0.122000
     42 C33          0.9680     4.2230    -6.9550 ca         1 TBH      -0.107000
     43 C34          2.0870     3.6970    -6.3380 ca         1 TBH      -0.092000
     44 H51          3.8960    -0.0070    -0.3420 ha         1 TBH       0.120000
     45 H231        -0.1140    -0.8870    -4.3630 h1         1 TBH      -0.004800
     46 H232        -0.1140     0.8820    -4.3640 h1         1 TBH      -0.004800
     47 H21          1.4290    -0.0020    -4.6300 ha         1 TBH       0.135000
     48 H31          3.8880    -0.0000    -4.6120 ha         1 TBH       0.079000
     49 H71          5.9010    -0.5130    -3.3630 hc         1 TBH       0.016200
     50 H72          5.9040    -0.5120    -1.5940 hc         1 TBH       0.016200
     51 H81          5.6220     1.9770    -1.6420 h1         1 TBH       0.051700
     52 H111         7.9460     2.4550    -2.4530 h2         1 TBH       0.000700
     53 H131         8.3940    -0.2910    -3.0440 hn         1 TBH       0.277800
     54 H151        10.0640     1.3880    -3.0450 h1         1 TBH       0.006200
     55 H152         9.1190     2.2690    -4.2530 h1         1 TBH       0.006200
     56 H161        10.2850    -0.5160    -4.6080 hc         1 TBH       0.022200
     57 H162         9.3400     0.3660    -5.8160 hc         1 TBH       0.022200
     58 H171        11.0450     2.1580    -5.8400 hc         1 TBH       0.012200
     59 H172        11.9890     1.2760    -4.6320 hc         1 TBH       0.012200
     60 H181        11.2670     0.2540    -7.4040 hc         1 TBH       0.013700
     61 H182        12.2120    -0.6280    -6.1960 hc         1 TBH       0.013700
     62 H191        13.6980     0.4760    -7.8280 hc         1 TBH      -0.002967
     63 H192        12.9700     2.0410    -7.4390 hc         1 TBH      -0.002967
     64 H193        13.9110     1.1750    -6.2170 hc         1 TBH      -0.002967
     65 H141         8.5480     1.5160    -0.6590 ho         1 TBH       0.377000
     66 H101         6.3360     1.8880    -4.4440 hn         1 TBH       0.282800
     67 H121         5.5870     3.7140    -2.4040 h2         1 TBH       0.029700
     68 H201         7.2950     4.5950    -3.2750 ho         1 TBH       0.388000
     69 H211         3.5410     3.8120    -3.7350 h1         1 TBH       0.070700
     70 H221         5.4780     5.9380    -4.0040 hn         1 TBH       0.271800
     71 H351         3.0080     5.3560    -2.5890 h3         1 TBH       0.041700
     72 H361         4.4450     5.0040    -1.0860 ho         1 TBH       0.418000
     73 H401         2.5770     5.8140    -0.3860 hc         1 TBH       0.018478
     74 H402         2.3100     7.3850     0.3810 hc         1 TBH       0.018478
     75 H403         3.9100     6.9700    -0.2480 hc         1 TBH       0.018478
     76 H391         1.2800     9.0350    -0.9010 hc         1 TBH       0.018478
     77 H392         1.8390     9.3630    -2.5470 hc         1 TBH       0.018478
     78 H393         2.9700     9.4720    -1.1910 hc         1 TBH       0.018478
     79 H411         1.1830     5.7400    -1.8620 hc         1 TBH       0.018478
     80 H412         0.3550     7.2800    -2.1300 hc         1 TBH       0.018478
     81 H413         1.3780     6.5930    -3.3990 hc         1 TBH       0.018478
     82 H281         5.3850     4.2540    -6.1110 hc         1 TBH       0.031200
     83 H282         4.5010     2.7580    -5.7800 hc         1 TBH       0.031200
     84 H301         4.2750     6.1890    -6.9720 ha         1 TBH       0.114500
     85 H311         2.2800     7.1230    -8.0800 ha         1 TBH       0.103500
     86 H321         0.1600     5.8640    -8.0660 ha         1 TBH       0.092000
     87 H331         0.0370     3.6690    -6.9520 ha         1 TBH       0.103500
     88 H341         2.0330     2.7330    -5.8470 ha         1 TBH       0.114500
@<TRIPOS>BOND
     1     1     2 1   
     2     2     3 1   
     3     2     4 1   
     4     4     5 ar  
     5     4     6 ar  
     6     5    14 ar  
     7     5    44 1   
     8     6     7 1   
     9     6    12 ar  
    10     7     8 1   
    11     8     9 1   
    12     8    45 1   
    13     8    46 1   
    14     9    10 1   
    15     9    11 1   
    16    12    13 ar  
    17    12    47 1   
    18    13    14 ar  
    19    13    48 1   
    20    14    15 1   
    21    15    16 1   
    22    15    49 1   
    23    15    50 1   
    24    16    17 1   
    25    16    25 1   
    26    16    51 1   
    27    17    18 1   
    28    17    24 1   
    29    17    52 1   
    30    18    19 1   
    31    18    53 1   
    32    19    20 1   
    33    19    54 1   
    34    19    55 1   
    35    20    21 1   
    36    20    56 1   
    37    20    57 1   
    38    21    22 1   
    39    21    58 1   
    40    21    59 1   
    41    22    23 1   
    42    22    60 1   
    43    22    61 1   
    44    23    62 1   
    45    23    63 1   
    46    23    64 1   
    47    24    65 1   
    48    25    26 1   
    49    25    66 1   
    50    26    27 1   
    51    26    28 1   
    52    26    67 1   
    53    27    68 1   
    54    28    29 1   
    55    28    37 1   
    56    28    69 1   
    57    29    30 1   
    58    29    70 1   
    59    30    31 1   
    60    30    32 1   
    61    30    71 1   
    62    31    72 1   
    63    32    33 1   
    64    33    34 1   
    65    33    35 1   
    66    33    36 1   
    67    34    73 1   
    68    34    74 1   
    69    34    75 1   
    70    35    76 1   
    71    35    77 1   
    72    35    78 1   
    73    36    79 1   
    74    36    80 1   
    75    36    81 1   
    76    37    38 1   
    77    37    82 1   
    78    37    83 1   
    79    38    39 ar  
    80    38    43 ar  
    81    39    40 ar  
    82    39    84 1   
    83    40    41 ar  
    84    40    85 1   
    85    41    42 ar  
    86    41    86 1   
    87    42    43 ar  
    88    42    87 1   
    89    43    88 1   
@<TRIPOS>SUBSTRUCTURE
     1 TBH         1 TEMP              0 ****  ****    0 ROOT
