@<TRIPOS>MOLECULE
TBI
   33    35     1     0     0
SMALL
bcc


@<TRIPOS>ATOM
      1 C18          0.0000     0.0000     0.0000 c2         1 TBI      -0.306000
      2 C19          1.3720     0.0000     0.0000 c2         1 TBI      -0.194000
      3 N17          1.8320     0.0000     1.2870 n2         1 TBI      -0.039000
      4 N16          0.7790    -0.0010     2.0960 n2         1 TBI      -0.236000
      5 N15         -0.2990    -0.0010     1.3140 na         1 TBI       0.375000
      6 C14         -1.6340     0.0020     1.9110 c3         1 TBI      -0.090000
      7 C2          -2.2770    -1.3890     2.1960 c3         1 TBI      -0.516000
      8 S1          -3.9300    -1.1630     2.9040 s6         1 TBI       2.285000
      9 O12         -3.7470    -0.5420     4.1870 o          1 TBI      -0.897500
     10 O13         -4.7500    -0.6040     1.8650 o          1 TBI      -0.897500
     11 C20         -2.4610    -2.2070     0.9040 c3         1 TBI      -0.085000
     12 C3          -1.4350    -2.2060     3.2270 c3         1 TBI      -0.169000
     13 C9          -2.0690    -3.5310     3.6250 c2         1 TBI       0.385000
     14 O11         -2.8770    -3.6740     4.5340 o          1 TBI      -0.574000
     15 O10         -1.6450    -4.5650     2.8530 o          1 TBI      -0.574000
     16 N4          -1.2260    -1.4510     4.4500 ny         1 TBI       0.483000
     17 C5          -0.5360    -1.9340     5.4730 c2         1 TBI      -0.320000
     18 C6          -0.2860    -1.3290     6.6380 c2         1 TBI      -0.679000
     19 C7           0.5070    -2.0380     7.6600 c3         1 TBI       0.414000
     20 O8           0.7680    -1.5320     8.7440 o          1 TBI      -0.433000
     21 H18         -0.6760    -0.0000    -0.8470 h4         1 TBI       0.168000
     22 H19          1.9970     0.0010    -0.8850 h4         1 TBI       0.142000
     23 H141        -1.5780     0.5420     2.8480 h1         1 TBI       0.092500
     24 H142        -2.2950     0.5450     1.2480 h1         1 TBI       0.092500
     25 H201        -2.8180    -1.5580     0.1140 hc         1 TBI       0.064000
     26 H202        -3.1830    -2.9960     1.0770 hc         1 TBI       0.064000
     27 H203        -1.5130    -2.6420     0.6140 hc         1 TBI       0.064000
     28 H3          -0.4680    -2.4120     2.7850 hx         1 TBI       0.122000
     29 HN4         -1.6180    -0.5330     4.5240 hn         1 TBI      -0.002000
     30 H5          -0.3550    -0.9720     5.0090 DU         1 TBI       0.254000
     31 H6           0.7960    -1.3950     6.6350 DU         1 TBI       0.146000
     32 H77          0.8670    -3.0360     7.4420 h1         1 TBI       0.018000
     33 HS1         -4.4420    -2.3610     3.1580 hs         1 TBI      -0.160000
@<TRIPOS>BOND
     1     1     2 1   
     2     1     5 1   
     3     1    21 1   
     4     2     3 1   
     5     2    22 1   
     6     3     4 1   
     7     4     5 1   
     8     5     6 1   
     9     6     7 1   
    10     6    23 1   
    11     6    24 1   
    12     7     8 1   
    13     7    11 1   
    14     7    12 1   
    15     8     9 1   
    16     8    10 1   
    17     8    33 1   
    18    11    25 1   
    19    11    26 1   
    20    11    27 1   
    21    12    13 1   
    22    12    16 1   
    23    12    28 1   
    24    13    14 1   
    25    13    15 1   
    26    16    17 1   
    27    16    29 1   
    28    16    30 1   
    29    17    18 1   
    30    17    30 1   
    31    18    19 1   
    32    18    31 1   
    33    19    20 1   
    34    19    31 1   
    35    19    32 1   
@<TRIPOS>SUBSTRUCTURE
     1 TBI         1 TEMP              0 ****  ****    0 ROOT
