@<TRIPOS>MOLECULE
molecule
   33    33     1     0     0
SMALL
bcc


@<TRIPOS>ATOM
      1 C18          0.0000     0.0000     0.0000 cc         1 TBI      -0.249600
      2 C19          1.3720     0.0000     0.0000 cd         1 TBI       0.242200
      3 N17          1.8320     0.0000     1.2870 nd         1 TBI      -0.365000
      4 N16          0.7790    -0.0010     2.0960 nc         1 TBI      -0.185800
      5 N15         -0.2990    -0.0010     1.3140 na         1 TBI       0.127400
      6 C14         -1.6340     0.0020     1.9110 c3         1 TBI       0.073300
      7 C2          -2.2770    -1.3890     2.1960 c3         1 TBI      -0.170200
      8 S1          -3.9300    -1.1630     2.9040 s6         1 TBI       1.050000
      9 O12         -3.7470    -0.5420     4.1870 o          1 TBI      -0.627300
     10 O13         -4.7500    -0.6040     1.8650 o          1 TBI      -0.627300
     11 C20         -2.4610    -2.2070     0.9040 c3         1 TBI      -0.066100
     12 C3          -1.4350    -2.2060     3.2270 c3         1 TBI       0.134500
     13 C9          -2.0690    -3.5310     3.6250 c          1 TBI       0.843600
     14 O11         -2.8770    -3.6740     4.5340 o          1 TBI      -0.805800
     15 O10         -1.6450    -4.5650     2.8530 o          1 TBI      -0.805800
     16 N4          -1.2260    -1.4510     4.4500 nu         1 TBI      -0.753000
     17 C5          -0.5360    -1.9340     5.4730 c2         1 TBI       0.212000
     18 C6          -0.2860    -1.3290     6.6380 ce         1 TBI      -0.475200
     19 C7           0.5070    -2.0380     7.6600 c          1 TBI       0.602100
     20 O8           0.7680    -1.5320     8.7440 o          1 TBI      -0.610100
     21 H18         -0.6760    -0.0000    -0.8470 h4         1 TBI       0.188000
     22 H19          1.9970     0.0010    -0.8850 h4         1 TBI       0.037100
     23 H141        -1.5780     0.5420     2.8480 h1         1 TBI       0.074700
     24 H142        -2.2950     0.5450     1.2470 h1         1 TBI       0.074700
     25 H201        -2.8020    -1.5550     0.1090 hc         1 TBI       0.057033
     26 H202        -1.5160    -2.6560     0.6230 hc         1 TBI       0.057033
     27 H203        -3.1950    -2.9860     1.0720 hc         1 TBI       0.057033
     28 H3          -0.4680    -2.4120     2.7850 h1         1 TBI       0.085700
     29 HN4         -1.6160    -0.5330     4.5230 hn         1 TBI       0.433800
     30 H5          -0.1360    -2.9320     5.3390 h4         1 TBI       0.138000
     31 H6          -0.6610    -0.3300     6.8270 ha         1 TBI       0.135000
     32 H77          0.8680    -3.0350     7.4410 h4         1 TBI      -0.030800
     33 HS1         -4.4420    -2.3610     3.1580 hs         1 TBI       0.152800
@<TRIPOS>BOND
     1     1     2 2
     2     1     5 1
     3     1    21 1
     4     2     3 1
     5     2    22 1
     6     3     4 2
     7     4     5 1
     8     5     6 1
     9     6     7 1
    10     6    23 1
    11     6    24 1
    12     7     8 1
    13     7    11 1
    14     7    12 1
    15     8     9 2
    16     8    10 2
    17    11    25 1
    18    11    26 1
    19    11    27 1
    20    12    13 1
    21    12    16 1
    22    12    28 1
    23    13    14 1
    24    13    15 1
    25    16    17 1
    26    16    29 1
    27    17    18 2
    28    17    30 1
    29    18    19 1
    30    18    31 1
    31    19    20 2
    32    19    32 1
    33    33     8 1
@<TRIPOS>SUBSTRUCTURE
     1 TBI         1 TEMP              0 ****  ****    0 ROOT
