@<TRIPOS>MOLECULE
molecule
   29    29     1     0     0
SMALL
bcc


@<TRIPOS>ATOM
      1 O4           0.0000     0.0000     0.0000 o          1 TBL      -0.660800
      2 S1           1.4200     0.0000     0.0000 sy         1 TBL       1.417200
      3 O3           2.1980     0.0000     1.1890 o          1 TBL      -0.660800
      4 N1           1.8880    -1.3330    -0.8650 n7         1 TBL      -0.878100
      5 C2           3.3120    -1.6040    -1.0810 c3         1 TBL       0.124500
      6 C10          3.7420    -1.0280    -2.4310 c3         1 TBL      -0.097100
      7 C1           3.5470    -3.0930    -1.0700 c          1 TBL       0.896600
      8 O2           2.6200    -3.8490    -0.9020 o          1 TBL      -0.836800
      9 O1           4.7850    -3.5780    -1.2490 o          1 TBL      -0.836800
     10 C3           1.9170     1.4190    -0.9200 ca         1 TBL      -0.333500
     11 C4           1.0580     1.9740    -1.8500 ca         1 TBL       0.010500
     12 C5           1.4460     3.0860    -2.5710 ca         1 TBL      -0.219000
     13 C6           2.6980     3.6460    -2.3630 ca         1 TBL       0.173100
     14 C8           3.5580     3.0860    -1.4290 ca         1 TBL      -0.219000
     15 C9           3.1640     1.9780    -0.7060 ca         1 TBL       0.010500
     16 O5           3.0810     4.7400    -3.0720 os         1 TBL      -0.334900
     17 C7           4.3840     5.2630    -2.8050 c3         1 TBL       0.129700
     18 HN1          1.1990    -1.9600    -1.2290 hn         1 TBL       0.469800
     19 H2           3.8910    -1.1420    -0.2900 h1         1 TBL       0.059700
     20 H10          2.8870    -0.5790    -2.9220 hc         1 TBL       0.029033
     21 H10A         4.1390    -1.8220    -3.0520 hc         1 TBL       0.029033
     22 H10B         4.5060    -0.2760    -2.2760 hc         1 TBL       0.029033
     23 H4           0.0800     1.5380    -2.0120 ha         1 TBL       0.154500
     24 H5           0.7720     3.5210    -3.2990 ha         1 TBL       0.134500
     25 H8           4.5350     3.5230    -1.2630 ha         1 TBL       0.134500
     26 H9           3.8350     1.5410     0.0230 ha         1 TBL       0.154500
     27 H7           4.4510     5.5510    -1.7630 h1         1 TBL       0.039700
     28 H7A          5.1280     4.5050    -3.0180 h1         1 TBL       0.039700
     29 H7B          4.5610     6.1290    -3.4310 h1         1 TBL       0.039700
@<TRIPOS>BOND
     1     2     1 2
     2    10     2 1
     3     3     2 2
     4     2     4 1
     5     5     4 1
     6     4    18 1
     7     7     5 1
     8     5     6 1
     9     5    19 1
    10     6    20 1
    11     6    21 1
    12     6    22 1
    13     8     7 1
    14     7     9 1
    15    15    10 ar
    16    10    11 ar
    17    12    11 ar
    18    11    23 1
    19    13    12 ar
    20    12    24 1
    21    16    13 1
    22    14    13 ar
    23    14    15 ar
    24    14    25 1
    25    15    26 1
    26    17    16 1
    27    17    27 1
    28    17    28 1
    29    17    29 1
@<TRIPOS>SUBSTRUCTURE
     1 TBL         1 TEMP              0 ****  ****    0 ROOT
