@<TRIPOS>MOLECULE
TBN
   33    35     1     0     0
SMALL
bcc


@<TRIPOS>ATOM
      1 O5'          0.0000     0.0000     0.0000 oh         1 TBN      -0.577800
      2 C5'          1.4290     0.0000     0.0000 c3         1 TBN       0.225400
      3 C4'          1.9390     0.0000     1.4430 c3         1 TBN       0.153100
      4 O4'          1.5960    -1.2410     2.0970 os         1 TBN      -0.383600
      5 C1'          2.5070    -1.3470     3.2120 c3         1 TBN       0.139800
      6 N9           2.6080    -2.7390     3.6590 na         1 TBN       0.303900
      7 C8           2.3070    -3.8340     2.8910 cc         1 TBN      -0.251100
      8 C7           2.5050    -4.9560     3.6010 cd         1 TBN      -0.132200
      9 C5           2.9750    -4.5430     4.9220 ca         1 TBN      -0.400400
     10 C6           3.3430    -5.2110     6.1000 ca         1 TBN       0.586200
     11 N1           3.7240    -4.4820     7.1460 nb         1 TBN      -0.730000
     12 C2           3.7530    -3.1630     7.0820 ca         1 TBN       0.676900
     13 N3           3.4110    -2.4950     6.0010 nb         1 TBN      -0.668000
     14 C4           3.0150    -3.1360     4.9020 ca         1 TBN       0.307800
     15 N6           3.3150    -6.5920     6.1710 nv         1 TBN      -0.536500
     16 C2'          3.8660    -0.8590     2.6630 c3         1 TBN       0.130100
     17 O2'          4.5740    -0.1090     3.6530 oh         1 TBN      -0.538800
     18 C3'          3.4830     0.0460     1.4690 c3         1 TBN       0.127100
     19 O3'          3.9410     1.3830     1.6870 oh         1 TBN      -0.548800
     20 H5'         -0.3140     0.1050    -0.8830 ho         1 TBN       0.390000
     21 H5'1         1.7900     0.8840    -0.5110 h1         1 TBN      -0.009300
     22 H5'2         1.7900    -0.8840    -0.5110 h1         1 TBN      -0.009300
     23 H4'          1.5300     0.8390     1.9930 h1         1 TBN       0.052700
     24 H1'          2.1810    -0.7090     4.0240 h2         1 TBN       0.070700
     25 H8           1.9600    -3.7990     1.8660 h4         1 TBN       0.153000
     26 H7           2.3520    -5.9720     3.2590 ha         1 TBN       0.126000
     27 H2           4.0690    -2.6080     7.9570 h5         1 TBN      -0.005900
     28 HN61         3.0640    -7.0440     7.0280 hn         1 TBN       0.271800
     29 HN62         3.5720    -7.1390     5.3730 hn         1 TBN       0.271800
     30 H2'          4.4580    -1.7000     2.3230 h1         1 TBN       0.017700
     31 H1           5.5010    -0.2530     3.5530 ho         1 TBN       0.391000
     32 H3'          3.8870    -0.3540     0.5470 h1         1 TBN       0.011700
     33 H3           4.4450     1.6670     0.9420 ho         1 TBN       0.385000
@<TRIPOS>BOND
     1     1     2 1   
     2     1    20 1   
     3     2     3 1   
     4     2    21 1   
     5     2    22 1   
     6     3     4 1   
     7     3    18 1   
     8     3    23 1   
     9     4     5 1   
    10     5     6 1   
    11     5    16 1   
    12     5    24 1   
    13     6     7 1   
    14     6    14 1   
    15     7     8 2   
    16     7    25 1   
    17     8     9 1   
    18     8    26 1   
    19     9    10 ar  
    20     9    14 ar  
    21    10    11 ar  
    22    10    15 1   
    23    11    12 ar  
    24    12    13 ar  
    25    12    27 1   
    26    13    14 ar  
    27    15    28 1   
    28    15    29 1   
    29    16    17 1   
    30    16    18 1   
    31    16    30 1   
    32    17    31 1   
    33    18    19 1   
    34    18    32 1   
    35    19    33 1   
@<TRIPOS>SUBSTRUCTURE
     1 TBN         1 TEMP              0 ****  ****    0 ROOT
