@<TRIPOS>MOLECULE
TBO
   41    43     1     0     0
SMALL
bcc


@<TRIPOS>ATOM
      1 N1          0.1880    1.0810   -0.0020 n         1 TBO     -0.401100
      2 C1A         1.3920    0.3680   -0.0710 ca        1 TBO     -0.008400
      3 C2         -0.2040    1.2160    1.3420 c         1 TBO      0.515400
      4 S2         -1.5220    1.9440    1.8540 s         1 TBO     -0.518400
      5 N3          0.7820    0.5750    2.1290 n         1 TBO     -0.289000
      6 C3A         1.7850    0.0460    1.2910 ca        1 TBO      0.028600
      7 C4          0.6850    0.5530    3.5620 c3        1 TBO      0.101000
      8 C5          1.5270   -0.5550    4.2450 c3        1 TBO      0.185500
      9 N6          2.9430   -0.2980    4.0000 n3        1 TBO     -0.757600
     10 C7          3.4720   -1.0630    2.8870 c3        1 TBO      0.223100
     11 C7A         2.9580   -0.6770    1.5310 ca        1 TBO     -0.053300
     12 C8          3.6930   -1.0800    0.3970 ca        1 TBO      0.008400
     13 CL8         5.1150   -2.0060    0.5800 cl        1 TBO     -0.093400
     14 C9          3.3100   -0.7630   -0.9110 ca        1 TBO     -0.117000
     15 C10         2.1540   -0.0290   -1.1640 ca        1 TBO     -0.126000
     16 C11         1.0780   -0.6060    5.7040 c3        1 TBO     -0.105100
     17 C12         3.8060   -0.3110    5.1700 c3        1 TBO      0.222000
     18 C13         5.1730    0.2480    4.9280 c2        1 TBO     -0.188200
     19 C14         6.2300   -0.0510    5.6990 c2        1 TBO     -0.115400
     20 C15         7.5590    0.5620    5.4580 c3        1 TBO     -0.060900
     21 C16         6.1580   -1.0000    6.8370 c3        1 TBO     -0.060900
     22 HN1        -0.3210    1.4500   -0.7640 hn        1 TBO      0.366500
     23 H41        -0.4040    0.3950    3.8260 h1        1 TBO      0.077700
     24 H42         0.9970    1.5630    3.9610 h1        1 TBO      0.077700
     25 H5          1.2350   -1.5520    3.7850 h1        1 TBO      0.045700
     26 H71         4.5950   -0.9200    2.8820 h1        1 TBO      0.059200
     27 H72         3.2780   -2.1740    3.0120 h1        1 TBO      0.059200
     28 H9          3.9290   -1.0990   -1.7580 ha        1 TBO      0.153000
     29 H10         1.8580    0.2200   -2.1920 ha        1 TBO      0.149000
     30 H111        1.1880    0.3880    6.2000 hc        1 TBO      0.048033
     31 H112        1.6630   -1.3660    6.2750 hc        1 TBO      0.048033
     32 H113       -0.0010   -0.8980    5.7380 hc        1 TBO      0.048033
     33 H121        3.3260    0.3410    5.9600 h1        1 TBO      0.040700
     34 H122        3.8980   -1.3550    5.5980 h1        1 TBO      0.040700
     35 H13         5.2690    0.9680    4.0990 ha        1 TBO      0.140000
     36 H151        7.8690    1.1650    6.3490 hc        1 TBO      0.042700
     37 H152        8.3250   -0.2370    5.2930 hc        1 TBO      0.042700
     38 H153        7.5500    1.2330    4.5650 hc        1 TBO      0.042700
     39 H161        7.1080   -0.9980    7.4250 hc        1 TBO      0.042700
     40 H162        5.9790   -2.0410    6.4650 hc        1 TBO      0.042700
     41 H163        5.3180   -0.7280    7.5240 hc        1 TBO      0.042700
@<TRIPOS>BOND
     1    1    2 1   
     2    1    3 1   
     3    1   22 1   
     4    2    6 ar  
     5    2   15 ar  
     6    3    4 2   
     7    3    5 1   
     8    5    6 1   
     9    5    7 1   
    10    6   11 ar  
    11    7    8 1   
    12    7   23 1   
    13    7   24 1   
    14    8    9 1   
    15    8   16 1   
    16    8   25 1   
    17    9   10 1   
    18    9   17 1   
    19   10   11 1   
    20   10   26 1   
    21   10   27 1   
    22   11   12 ar  
    23   12   13 1   
    24   12   14 ar  
    25   14   15 ar  
    26   14   28 1   
    27   15   29 1   
    28   16   30 1   
    29   16   31 1   
    30   16   32 1   
    31   17   18 1   
    32   17   33 1   
    33   17   34 1   
    34   18   19 2   
    35   18   35 1   
    36   19   20 1   
    37   19   21 1   
    38   20   36 1   
    39   20   37 1   
    40   20   38 1   
    41   21   39 1   
    42   21   40 1   
    43   21   41 1   
@<TRIPOS>SUBSTRUCTURE
     1 TBO         1 TEMP              0 ****  ****    0 ROOT
