@<TRIPOS>MOLECULE
molecule
   13    13     1     0     0
SMALL
bcc


@<TRIPOS>ATOM
      1 O1           0.0000     0.0000     0.0000 oh         1 TBP      -0.499100
      2 C1           1.3590     0.0000     0.0000 ca         1 TBP       0.163100
      3 C2           2.0540     0.0000     1.2010 ca         1 TBP      -0.047900
      4 C3           3.4350    -0.0000     1.1980 ca         1 TBP      -0.057000
      5 C4           4.1260    -0.0010     0.0000 ca         1 TBP      -0.031900
      6 C5           3.4350    -0.0010    -1.1980 ca         1 TBP      -0.057000
      7 C6           2.0540    -0.0060    -1.2010 ca         1 TBP      -0.047900
      8 Br2          1.1110    -0.0010     2.8400 br         1 TBP      -0.058100
      9 Br4          6.0170    -0.0020     0.0000 br         1 TBP      -0.070100
     10 Br6          1.1110    -0.0060    -2.8400 br         1 TBP      -0.058100
     11 H1          -0.3140     0.8890    -0.0010 ho         1 TBP       0.435000
     12 H3           3.9780    -0.0000     2.1350 ha         1 TBP       0.163000
     13 H5           3.9780    -0.0040    -2.1350 ha         1 TBP       0.163000
@<TRIPOS>BOND
     1     1     2 1
     2     1    11 1
     3     2     3 ar
     4     2     7 ar
     5     3     4 ar
     6     3     8 1
     7     4     5 ar
     8     4    12 1
     9     5     6 ar
    10     5     9 1
    11     6     7 ar
    12     6    13 1
    13     7    10 1
@<TRIPOS>SUBSTRUCTURE
     1 TBP         1 TEMP              0 ****  ****    0 ROOT
