@<TRIPOS>MOLECULE
TBP
   13    13     1     0     0
SMALL
bcc


@<TRIPOS>ATOM
      1 O1         -0.0240    0.1990   -0.1760 oh        1 TBP     -0.470100
      2 C1          1.3380    0.1270   -0.0810 ca        1 TBP      0.199100
      3 C2          2.0260    0.1590    1.1510 ca        1 TBP     -0.093900
      4 C3          3.4190    0.0810    1.1690 ca        1 TBP     -0.030500
      5 C4          4.1340   -0.0280   -0.0240 ca        1 TBP     -0.071900
      6 C5          3.4540   -0.0590   -1.2450 ca        1 TBP     -0.030500
      7 C6          2.0620    0.0170   -1.2890 ca        1 TBP     -0.093900
      8 BR2         1.1190    0.3040    2.7850 br        1 TBP     -0.056600
      9 BR4         6.0000   -0.1320    0.0090 br        1 TBP     -0.066100
     10 BR6         1.2310   -0.0320   -2.9660 br        1 TBP     -0.056600
     11 H1         -0.3970    0.2720    0.7210 ho        1 TBP      0.439000
     12 H3          3.9560    0.1060    2.1330 ha        1 TBP      0.166000
     13 H5          4.0240   -0.1450   -2.1870 ha        1 TBP      0.166000
@<TRIPOS>BOND
     1    1    2 1   
     2    1   11 1   
     3    2    3 ar  
     4    2    7 ar  
     5    3    4 ar  
     6    3    8 1   
     7    4    5 ar  
     8    4   12 1   
     9    5    6 ar  
    10    5    9 1   
    11    6    7 ar  
    12    6   13 1   
    13    7   10 1   
@<TRIPOS>SUBSTRUCTURE
     1 TBP         1 TEMP              0 ****  ****    0 ROOT
