@<TRIPOS>MOLECULE
molecule
   43    44     1     0     0
SMALL
bcc


@<TRIPOS>ATOM
      1 Cl1          0.0000     0.0000     0.0000 cl         1 TBQ      -0.110400
      2 C1           2.7070     0.0000     0.0000 ca         1 TBQ      -0.118500
      3 C2           3.9470     0.0000     0.6120 ca         1 TBQ      -0.118500
      4 C3           4.0370    -0.0060     1.9910 ca         1 TBQ      -0.084300
      5 C4           2.8870    -0.0130     2.7590 ca         1 TBQ      -0.118500
      6 C5           1.6480    -0.0120     2.1490 ca         1 TBQ      -0.118500
      7 C6           1.5570    -0.0000     0.7680 ca         1 TBQ       0.025400
      8 C12          5.3880    -0.0070     2.6580 c3         1 TBQ      -0.039100
      9 C15          5.8440     1.4350     2.8900 c3         1 TBQ      -0.111400
     10 C18          7.1320     1.4370     3.7160 c3         1 TBQ       0.146800
     11 C19          7.5320     2.8780     4.0330 c3         1 TBQ       0.046300
     12 N22          8.6140     2.8790     5.0210 na         1 TBQ      -0.065400
     13 C23          9.8010     3.5010     4.9150 cc         1 TBQ       0.442400
     14 N24         10.4850     3.2590     6.0030 nd         1 TBQ      -0.766000
     15 C25          9.7710     2.4890     6.8240 cd         1 TBQ       0.555900
     16 N26          8.6170     2.2340     6.2680 nc         1 TBQ      -0.526800
     17 O29          6.9180     0.7220     4.9350 oh         1 TBQ      -0.570800
     18 C31          8.2490     0.7620     2.9180 c3         1 TBQ      -0.054000
     19 C32          8.0770     1.0770     1.4310 c3         1 TBQ      -0.089767
     20 C36          9.6050     1.2850     3.3960 c3         1 TBQ      -0.089767
     21 C40          8.1840    -0.7520     3.1290 c3         1 TBQ      -0.089767
     22 H1           2.6370     0.0050    -1.0810 ha         1 TBQ       0.144500
     23 H2           4.8480     0.0030     0.0100 ha         1 TBQ       0.136500
     24 H3           2.9580    -0.0200     3.8400 ha         1 TBQ       0.136500
     25 H4           0.7480    -0.0170     2.7510 ha         1 TBQ       0.144500
     26 H5           6.1040    -0.5140     2.0220 hc         1 TBQ       0.065700
     27 H6           5.3220    -0.5230     3.6080 hc         1 TBQ       0.065700
     28 H7           6.0260     1.9150     1.9360 hc         1 TBQ       0.052700
     29 H8           5.0720     1.9760     3.4250 hc         1 TBQ       0.052700
     30 H9           7.8690     3.3680     3.1270 h1         1 TBQ       0.064700
     31 H10          6.6780     3.4100     4.4340 h1         1 TBQ       0.064700
     32 H11         10.1340     4.0990     4.0740 h5         1 TBQ       0.067100
     33 H12         10.0940     2.1360     7.7960 h5         1 TBQ       0.079100
     34 H13          6.1670     1.0790     5.3800 ho         1 TBQ       0.405000
     35 H14          7.7890     2.1150     1.3130 hc         1 TBQ       0.041478
     36 H15          7.3070     0.4390     1.0140 hc         1 TBQ       0.041478
     37 H16          9.0120     0.9000     0.9140 hc         1 TBQ       0.041478
     38 H17          9.7050     2.3290     3.1250 hc         1 TBQ       0.041478
     39 H18          9.6720     1.1830     4.4730 hc         1 TBQ       0.041478
     40 H19         10.3980     0.7130     2.9290 hc         1 TBQ       0.041478
     41 H20          7.5390    -0.9720     3.9710 hc         1 TBQ       0.041478
     42 H21          7.7870    -1.2240     2.2380 hc         1 TBQ       0.041478
     43 H22          9.1790    -1.1320     3.3270 hc         1 TBQ       0.041478
@<TRIPOS>BOND
     1    20    18 1
     2    21    18 1
     3    18    19 1
     4    18    10 1
     5     9    10 1
     6     9     8 1
     7    10    17 1
     8    10    11 1
     9     8     4 1
    10    11    12 1
    11     5     4 ar
    12     5     6 ar
    13     4     3 ar
    14    16    12 1
    15    16    15 2
    16     6     7 ar
    17    12    13 1
    18    15    14 1
    19     3     2 ar
    20    13    14 2
    21     7     2 ar
    22     7     1 1
    23     2    22 1
    24     3    23 1
    25     5    24 1
    26     6    25 1
    27     8    26 1
    28     8    27 1
    29     9    28 1
    30     9    29 1
    31    11    30 1
    32    11    31 1
    33    13    32 1
    34    15    33 1
    35    17    34 1
    36    19    35 1
    37    19    36 1
    38    19    37 1
    39    20    38 1
    40    20    39 1
    41    20    40 1
    42    21    41 1
    43    21    42 1
    44    21    43 1
@<TRIPOS>SUBSTRUCTURE
     1 TBQ         1 TEMP              0 ****  ****    0 ROOT
