@<TRIPOS>MOLECULE
TBS
   14    15     1     0     0
SMALL
bcc


@<TRIPOS>ATOM
      1 C1         -0.0160    0.0030   -0.0230 ca        1 TBS      0.042100
      2 C2          1.4010    0.0010   -0.0210 ca        1 TBS     -0.024900
      3 C3          2.1350   -0.0010    1.1680 ca        1 TBS      0.080100
      4 C4         -0.7530    0.0020    1.1620 ca        1 TBS     -0.011900
      5 N5         -0.3650   -0.0010    3.7180 na        1 TBS     -0.046100
      6 C6         -0.0290    0.0000    2.3580 ca        1 TBS     -0.041200
      7 C7          1.4190   -0.0010    2.3690 ca        1 TBS      0.032400
      8 N8          1.8060   -0.0030    3.7440 nc        1 TBS     -0.189400
      9 N9          0.7650   -0.0030    4.4600 nd        1 TBS     -0.116400
     10 BR10       -2.6140    0.0040    1.1920 br        1 TBS     -0.029100
     11 BR11       -0.9320    0.0050   -1.6520 br        1 TBS     -0.016100
     12 BR12        2.3150    0.0020   -1.6510 br        1 TBS     -0.020100
     13 BR13        3.9950   -0.0030    1.1830 br        1 TBS     -0.002100
     14 H51        -1.2720   -0.0000    4.1230 hn        1 TBS      0.345700
@<TRIPOS>BOND
     1    1    2 ar  
     2    1    4 ar  
     3    1   11 1   
     4    2    3 ar  
     5    2   12 1   
     6    3    7 ar  
     7    3   13 1   
     8    4    6 ar  
     9    4   10 1   
    10    5    6 1   
    11    5    9 1   
    12    5   14 1   
    13    6    7 ar  
    14    7    8 1   
    15    8    9 2   
@<TRIPOS>SUBSTRUCTURE
     1 TBS         1 TEMP              0 ****  ****    0 ROOT
