@<TRIPOS>MOLECULE
molecule
   14    15     1     0     0
SMALL
bcc


@<TRIPOS>ATOM
      1 C1           0.0000     0.0000     0.0000 ca         1 TBS       0.052100
      2 C2           1.3900     0.0000     0.0000 ca         1 TBS      -0.018900
      3 C3           2.0880     0.0000     1.1730 ca         1 TBS       0.088100
      4 C4          -0.6970     0.0040     1.1880 ca         1 TBS      -0.009900
      5 N5          -0.3850    -0.0030     3.7150 na         1 TBS      -0.041100
      6 C6          -0.0030    -0.0020     2.3940 ca         1 TBS      -0.045200
      7 C7           1.4010    -0.0010     2.3950 ca         1 TBS       0.041400
      8 N8           1.8100    -0.0020     3.6800 nc         1 TBS      -0.189400
      9 N9           0.7960    -0.0030     4.4710 nd         1 TBS      -0.114400
     10 Br10        -2.5880     0.0140     1.1810 br         1 TBS      -0.049100
     11 Br11        -0.9400     0.0010    -1.6410 br         1 TBS      -0.019100
     12 Br12         2.3250     0.0010    -1.6450 br         1 TBS      -0.026100
     13 Br13         3.9790     0.0010     1.1490 br         1 TBS      -0.018100
     14 H51         -1.3210    -0.0050     4.0680 hn         1 TBS       0.350700
@<TRIPOS>BOND
     1     1     2 ar
     2     1     4 ar
     3     1    11 1
     4     2     3 ar
     5     2    12 1
     6     3     7 ar
     7     3    13 1
     8     4     6 ar
     9     4    10 1
    10     5     6 1
    11     5     9 1
    12     5    14 1
    13     6     7 ar
    14     7     8 1
    15     8     9 2
@<TRIPOS>SUBSTRUCTURE
     1 TBS         1 TEMP              0 ****  ****    0 ROOT
