@<TRIPOS>MOLECULE
molecule
   37    40     1     0     0
SMALL
bcc


@<TRIPOS>ATOM
      1 C4C          0.0000     0.0000     0.0000 c3         1 TBT      -0.042100
      2 C9C          1.5270     0.0000     0.0000 c3         1 TBT       0.143100
      3 O3           2.0090    -1.1680    -0.6680 oh         1 TBT      -0.603800
      4 C8B          2.0110     0.0000     1.4530 c3         1 TBT       0.124100
      5 O2           1.3360    -1.0240     2.1860 oh         1 TBT      -0.587800
      6 C3B          1.6950     1.3630     2.0660 c3         1 TBT       0.180400
      7 O1           2.5290     2.3530     1.4620 oh         1 TBT      -0.598800
      8 C3A          0.2500     1.7240     1.8420 ca         1 TBT      -0.075300
      9 C2A         -3.4510     4.5240     3.1220 ca         1 TBT      -0.118000
     10 C4A         -0.5310     1.1000     0.8840 ca         1 TBT      -0.037300
     11 C1A         -2.1690     4.1360     3.2730 ca         1 TBT      -0.111000
     12 C5A         -1.8400     1.4740     0.7050 ca         1 TBT      -0.125000
     13 C4B         -2.3990     2.4790     1.4880 ca         1 TBT      -0.012000
     14 C6A         -5.6260     4.3380     2.0070 ca         1 TBT      -0.115000
     15 C7A         -6.4160     3.7460     1.0680 ca         1 TBT      -0.126000
     16 C8A         -5.9210     2.7370     0.2510 ca         1 TBT      -0.125000
     17 C5B         -4.2940     3.9280     2.1560 ca         1 TBT      -0.031000
     18 C9B         -3.7920     2.9020     1.3240 ca         1 TBT      -0.025000
     19 C11         -1.6090     3.1150     2.4710 ca         1 TBT      -0.041000
     20 C9A         -4.6260     2.3140     0.3710 ca         1 TBT      -0.115000
     21 C10         -0.2790     2.7160     2.6290 ca         1 TBT      -0.095000
     22 H4C1        -0.3560    -0.9550     0.3680 hc         1 TBT       0.068200
     23 H4C2        -0.3560     0.1540    -1.0120 hc         1 TBT       0.068200
     24 H9C          1.8900     0.8880    -0.5030 h1         1 TBT       0.058700
     25 H3           2.4990    -0.9140    -1.4320 ho         1 TBT       0.401000
     26 H8B          3.0810    -0.1710     1.4790 h1         1 TBT       0.042700
     27 HO2          1.9700    -1.5840     2.6010 ho         1 TBT       0.404000
     28 H3B          1.8910     1.3260     3.1310 h1         1 TBT       0.046700
     29 H1           3.2110     2.6000     2.0650 ho         1 TBT       0.402000
     30 H2A         -3.8450     5.3100     3.7550 ha         1 TBT       0.129000
     31 H1A         -1.5550     4.6160     4.0250 ha         1 TBT       0.129000
     32 H5A         -2.4410     0.9830    -0.0510 ha         1 TBT       0.136000
     33 H6A         -6.0260     5.1240     2.6370 ha         1 TBT       0.132000
     34 H7A         -7.4450     4.0670     0.9570 ha         1 TBT       0.128000
     35 H8A         -6.5670     2.2810    -0.4890 ha         1 TBT       0.129000
     36 H9A         -4.2490     1.5270    -0.2710 ha         1 TBT       0.134000
     37 H10          0.3410     3.1980     3.3760 ha         1 TBT       0.129000
@<TRIPOS>BOND
     1     1     2 1
     2     1    10 1
     3     1    22 1
     4     1    23 1
     5     2     3 1
     6     2     4 1
     7     2    24 1
     8     3    25 1
     9     4     5 1
    10     4     6 1
    11     4    26 1
    12     5    27 1
    13     6     7 1
    14     6     8 1
    15     6    28 1
    16     7    29 1
    17     8    10 ar
    18     8    21 ar
    19     9    11 ar
    20     9    17 ar
    21     9    30 1
    22    10    12 ar
    23    11    19 ar
    24    11    31 1
    25    12    13 ar
    26    12    32 1
    27    13    18 ar
    28    13    19 ar
    29    14    15 ar
    30    14    17 ar
    31    14    33 1
    32    15    16 ar
    33    15    34 1
    34    16    20 ar
    35    16    35 1
    36    17    18 ar
    37    18    20 ar
    38    19    21 ar
    39    20    36 1
    40    21    37 1
@<TRIPOS>SUBSTRUCTURE
     1 TBT         1 TEMP              0 ****  ****    0 ROOT
