@<TRIPOS>MOLECULE
TBT
   37    40     1     0     0
SMALL
bcc


@<TRIPOS>ATOM
      1 C4C         0.0410   -0.0890    0.1640 c3        1 TBT     -0.071100
      2 C9C         1.5540    0.0090    0.0230 c3        1 TBT      0.108100
      3 O3          2.0800   -1.1610   -0.5950 oh        1 TBT     -0.610800
      4 C8B         2.2320    0.0930    1.3970 c3        1 TBT      0.156100
      5 O2          1.9900   -1.0690    2.1750 oh        1 TBT     -0.600800
      6 C3B         1.7070    1.2890    2.2120 c3        1 TBT      0.189400
      7 O1          2.6120    2.3520    1.9190 oh        1 TBT     -0.600800
      8 C3A         0.2830    1.6800    1.9400 ca        1 TBT     -0.104300
      9 C2A        -3.4450    4.5810    3.1090 ca        1 TBT     -0.113000
     10 C4A        -0.5070    1.0400    0.9590 ca        1 TBT     -0.047300
     11 C1A        -2.1650    4.1720    3.2940 ca        1 TBT     -0.117000
     12 C5A        -1.8190    1.4430    0.7550 ca        1 TBT     -0.120000
     13 C4B        -2.4000    2.4830    1.5100 ca        1 TBT     -0.010000
     14 C6A        -5.6090    4.4070    1.9300 ca        1 TBT     -0.117000
     15 C7A        -6.4150    3.8230    0.9740 ca        1 TBT     -0.125000
     16 C8A        -5.9110    2.7830    0.1740 ca        1 TBT     -0.127000
     17 C5B        -4.2780    3.9680    2.1120 ca        1 TBT     -0.034000
     18 C9B        -3.7640    2.9210    1.3100 ca        1 TBT     -0.021000
     19 C11        -1.6080    3.1140    2.4990 ca        1 TBT     -0.035000
     20 C9A        -4.6120    2.3410    0.3390 ca        1 TBT     -0.118000
     21 C10        -0.2770    2.6980    2.6980 ca        1 TBT     -0.117000
     22 H4C1       -0.2070   -1.0560    0.6850 hc        1 TBT      0.063200
     23 H4C2       -0.4300   -0.1200   -0.8540 hc        1 TBT      0.063200
     24 H9C         1.8360    0.9170   -0.5800 h1        1 TBT      0.060700
     25 H3          1.6480   -1.2440   -1.4520 ho        1 TBT      0.409000
     26 H8B         3.3440    0.2130    1.2460 h1        1 TBT      0.071700
     27 HO2         2.2270   -1.8230    1.6180 ho        1 TBT      0.422000
     28 H3B         1.8020    1.0290    3.3100 h1        1 TBT      0.070700
     29 H1          2.2200    3.1660    2.2560 ho        1 TBT      0.408000
     30 H2A        -3.8780    5.3910    3.7150 ha        1 TBT      0.135000
     31 H1A        -1.5220    4.6370    4.0570 ha        1 TBT      0.134000
     32 H5A        -2.4130    0.9280   -0.0150 ha        1 TBT      0.134000
     33 H6A        -5.9920    5.2220    2.5620 ha        1 TBT      0.134000
     34 H7A        -7.4510    4.1650    0.8330 ha        1 TBT      0.134000
     35 H8A        -6.5590    2.3220   -0.5860 ha        1 TBT      0.133000
     36 H9A        -4.2410    1.5260   -0.2990 ha        1 TBT      0.132000
     37 H10         0.3200    3.1920    3.4820 ha        1 TBT      0.131000
@<TRIPOS>BOND
     1    1    2 1   
     2    1   10 1   
     3    1   22 1   
     4    1   23 1   
     5    2    3 1   
     6    2    4 1   
     7    2   24 1   
     8    3   25 1   
     9    4    5 1   
    10    4    6 1   
    11    4   26 1   
    12    5   27 1   
    13    6    7 1   
    14    6    8 1   
    15    6   28 1   
    16    7   29 1   
    17    8   10 ar  
    18    8   21 ar  
    19    9   11 ar  
    20    9   17 ar  
    21    9   30 1   
    22   10   12 ar  
    23   11   19 ar  
    24   11   31 1   
    25   12   13 ar  
    26   12   32 1   
    27   13   18 ar  
    28   13   19 ar  
    29   14   15 ar  
    30   14   17 ar  
    31   14   33 1   
    32   15   16 ar  
    33   15   34 1   
    34   16   20 ar  
    35   16   35 1   
    36   17   18 ar  
    37   18   20 ar  
    38   19   21 ar  
    39   20   36 1   
    40   21   37 1   
@<TRIPOS>SUBSTRUCTURE
     1 TBT         1 TEMP              0 ****  ****    0 ROOT
