@<TRIPOS>MOLECULE
molecule
   15    14     1     0     0
SMALL
bcc


@<TRIPOS>ATOM
      1 O            0.0000     0.0000     0.0000 oh         1 TBU      -0.603800
      2 C            1.4290     0.0000     0.0000 c3         1 TBU       0.144800
      3 C1           1.9390     0.0000     1.4420 c3         1 TBU      -0.105433
      4 C2           1.9400    -1.2490    -0.7210 c3         1 TBU      -0.105433
      5 C3           1.9390     1.2490    -0.7210 c3         1 TBU      -0.105433
      6 HO          -0.3140    -0.7710     0.4430 ho         1 TBU       0.401000
      7 H11          1.5270     0.8510     1.9710 hc         1 TBU       0.041367
      8 H12          3.0210     0.0640     1.4430 hc         1 TBU       0.041367
      9 H13          1.6320    -0.9150     1.9340 hc         1 TBU       0.041367
     10 H21          1.5270    -1.2820    -1.7230 hc         1 TBU       0.041367
     11 H22          3.0210    -1.2170    -0.7770 hc         1 TBU       0.041367
     12 H23          1.6320    -2.1330    -0.1750 hc         1 TBU       0.041367
     13 H31          3.0230     1.2490    -0.7210 hc         1 TBU       0.041367
     14 H32          1.5780     1.2500    -1.7420 hc         1 TBU       0.041367
     15 H33          1.5780     2.1340    -0.2100 hc         1 TBU       0.041367
@<TRIPOS>BOND
     1     1     2 1
     2     1     6 1
     3     2     3 1
     4     2     4 1
     5     2     5 1
     6     3     7 1
     7     3     8 1
     8     3     9 1
     9     4    10 1
    10     4    11 1
    11     4    12 1
    12     5    13 1
    13     5    14 1
    14     5    15 1
@<TRIPOS>SUBSTRUCTURE
     1 TBU         1 TEMP              0 ****  ****    0 ROOT
