@<TRIPOS>MOLECULE
TBU
   15    14     1     0     0
SMALL
bcc


@<TRIPOS>ATOM
      1 O           0.0230    0.0360   -0.0220 oh        1 TBU     -0.598800
      2 C           1.4520   -0.0080    0.0040 c3        1 TBU      0.145800
      3 C1          1.9440   -0.0060    1.4470 c3        1 TBU     -0.109100
      4 C2          1.9460   -1.2550   -0.7190 c3        1 TBU     -0.109100
      5 C3          1.9130    1.2500   -0.7210 c3        1 TBU     -0.109100
      6 HO         -0.2880   -0.7550    0.4330 ho        1 TBU      0.397000
      7 H11         1.6090   -0.9320    1.9720 hc        1 TBU      0.042700
      8 H12         1.5310    0.8790    1.9870 hc        1 TBU      0.042700
      9 H13         3.0580    0.0400    1.4700 hc        1 TBU      0.042700
     10 H21         1.5360   -1.2800   -1.7560 hc        1 TBU      0.042700
     11 H22         1.6120   -2.1740   -0.1810 hc        1 TBU      0.042700
     12 H23         3.0600   -1.2520   -0.7680 hc        1 TBU      0.042700
     13 H31         3.0270    1.2830   -0.7390 hc        1 TBU      0.042700
     14 H32         1.5250    1.2500   -1.7670 hc        1 TBU      0.042700
     15 H33         1.5240    2.1550   -0.1980 hc        1 TBU      0.042700
@<TRIPOS>BOND
     1    1    2 1   
     2    1    6 1   
     3    2    3 1   
     4    2    4 1   
     5    2    5 1   
     6    3    7 1   
     7    3    8 1   
     8    3    9 1   
     9    4   10 1   
    10    4   11 1   
    11    4   12 1   
    12    5   13 1   
    13    5   14 1   
    14    5   15 1   
@<TRIPOS>SUBSTRUCTURE
     1 TBU         1 TEMP              0 ****  ****    0 ROOT
