@<TRIPOS>MOLECULE
TBV
   91    94     1     0     0
SMALL
bcc


@<TRIPOS>ATOM
      1 CHA          0.0000     0.0000     0.0000 c3         1 TBV       0.172200
      2 CHB          4.7430     0.0000     1.5490 ce         1 TBV      -0.006200
      3 CHD         -1.7360    -4.3360    -1.9850 c3         1 TBV       0.184200
      4 NA           2.2960     0.0000     1.1060 na         1 TBV       0.398900
      5 C1A          1.5070     0.0000     0.0000 cc         1 TBV      -0.297600
      6 C2A          2.2960    -0.0010    -1.1030 cd         1 TBV      -0.142300
      7 C3A          3.6270    -0.0020    -0.6820 cd         1 TBV      -0.127300
      8 C4A          3.6150    -0.0010     0.7050 cc         1 TBV      -0.318100
      9 CAA          1.8190    -0.0020    -2.5330 c3         1 TBV       0.073900
     10 CBA          1.6570     1.4400    -3.0180 c3         1 TBV      -0.135400
     11 CGA          1.1800     1.4380    -4.4480 c          1 TBV       0.980600
     12 O1A          0.9890     0.3910    -5.0200 o          1 TBV      -0.913300
     13 O2A          0.9680     2.6000    -5.0850 o          1 TBV      -0.913300
     14 CMA          4.8460    -0.0020    -1.5670 c3         1 TBV       0.097200
     15 NB           3.4400     0.7880     3.4880 ns         1 TBV      -0.032100
     16 C1B          4.6090     0.3410     2.8830 cd         1 TBV      -0.148400
     17 C2B          5.6290     0.2910     3.8430 cd         1 TBV      -0.050200
     18 C3B          5.0870     0.7110     5.0490 cc         1 TBV      -0.172200
     19 C4B          3.6800     1.0240     4.7930 c          1 TBV       0.643700
     20 CMB          7.0540    -0.1390     3.6080 c3         1 TBV       0.080100
     21 CAB          5.7920     0.8200     6.3390 ce         1 TBV      -0.066000
     22 CBB          5.1390     1.2390     7.4190 c2         1 TBV      -0.182000
     23 NC          -4.0960    -5.1040    -1.3650 na         1 TBV       0.309900
     24 C1C         -5.3860    -4.7970    -1.6820 cc         1 TBV      -0.095200
     25 C2C         -5.3850    -3.7930    -2.5870 cd         1 TBV      -0.184300
     26 C3C         -3.9800    -3.4620    -2.8410 cd         1 TBV      -0.115800
     27 C4C         -3.2410    -4.3010    -2.0630 cc         1 TBV      -0.282600
     28 CBC         -3.9090    -2.3690    -5.0100 c2         1 TBV      -0.188000
     29 ND          -0.8580    -2.0390    -1.2820 na         1 TBV       0.427900
     30 C1D         -1.2610    -3.3090    -0.9900 cc         1 TBV      -0.351600
     31 C2D         -1.1590    -3.4870     0.3430 cd         1 TBV      -0.165300
     32 C3D         -0.6780    -2.2840     0.8940 cd         1 TBV      -0.135300
     33 C4D         -0.5020    -1.4150    -0.1230 cc         1 TBV      -0.319600
     34 OC          -6.4910    -5.4010    -1.1720 os         1 TBV      -0.274900
     35 CBD          1.0390    -2.3900     2.6800 c3         1 TBV      -0.155400
     36 C46         -5.3990    -7.5500    -0.9990 c3         1 TBV      -0.035100
     37 CGD          1.3100    -2.1220     4.1380 c          1 TBV       0.964600
     38 O2D          0.4350    -1.6770     4.8420 o          1 TBV      -0.901800
     39 O1D          2.5220    -2.3790     4.6540 o          1 TBV      -0.901800
     40 C47         -5.5840    -6.0320     0.9770 c3         1 TBV      -0.035100
     41 C44         -6.2790    -6.5120    -0.2990 c3         1 TBV       0.144800
     42 OB           2.8710     1.4250     5.6120 o          1 TBV      -0.666500
     43 C45         -7.6250    -7.1430     0.0600 c3         1 TBV      -0.035100
     44 HHA1        -0.3610     0.5860    -0.8370 hc         1 TBV       0.026200
     45 HHA2        -0.3610     0.4320     0.9250 hc         1 TBV       0.026200
     46 HHB          5.7000    -0.3390     1.1710 ha         1 TBV       0.113000
     47 HHD1        -1.3190    -4.1140    -2.9600 hc         1 TBV       0.017700
     48 HHD2        -1.4140    -5.3210    -1.6700 hc         1 TBV       0.017700
     49 HAA1         0.8660    -0.5130    -2.5950 hc         1 TBV       0.014700
     50 HAA2         2.5440    -0.5130    -3.1550 hc         1 TBV       0.014700
     51 HMA1         5.2940     0.9840    -1.5660 hc         1 TBV      -0.000967
     52 HMA2         5.5630    -0.7240    -1.1950 hc         1 TBV      -0.000967
     53 HMA3         4.5590    -0.2670    -2.5780 hc         1 TBV      -0.000967
     54 HBA1         2.6100     1.9510    -2.9570 hc         1 TBV       0.009700
     55 HBA2         0.9320     1.9510    -2.3960 hc         1 TBV       0.009700
     56 HB           2.5600     0.9150     3.0280 hn         1 TBV       0.187500
     57 HMB1         7.0640    -1.0840     3.0780 hc         1 TBV       0.003367
     58 HMB2         7.5580    -0.2540     4.5600 hc         1 TBV       0.003367
     59 HMB3         7.5650     0.6110     3.0180 hc         1 TBV       0.003367
     60 HC          -3.8170    -5.8140    -0.7180 hn         1 TBV       0.134700
     61 HMC1        -6.3760    -2.0980    -3.4110 hc         1 TBV      -0.002967
     62 HMC2        -6.8330    -3.6430    -4.1410 hc         1 TBV      -0.002967
     63 HMC3        -7.4330    -3.2130    -2.5330 hc         1 TBV      -0.002967
     64 HAC         -2.7300    -1.7110    -3.4150 ha         1 TBV       0.110000
     65 HBC1        -4.6460    -3.0830    -5.3570 ha         1 TBV       0.085500
     66 HBC2        -3.5330    -1.6090    -5.6840 ha         1 TBV       0.085500
     67 HD          -0.8320    -1.6320    -2.1960 hn         1 TBV       0.126700
     68 HMD1        -2.4340    -4.6030     1.6320 hc         1 TBV      -0.005967
     69 HMD2        -0.7110    -4.9590     1.8140 hc         1 TBV      -0.005967
     70 HMD3        -1.5970    -5.5700     0.4100 hc         1 TBV      -0.005967
     71 HAD1        -0.5630    -0.9640     2.5610 hc         1 TBV       0.018700
     72 HAD2        -1.0800    -2.6080     2.9600 hc         1 TBV       0.018700
     73 HBD1         1.7130    -1.7980     2.0720 hc         1 TBV       0.010700
     74 HBD2         1.1960    -3.4420     2.4710 hc         1 TBV       0.010700
     75 H471        -5.5120    -4.9520     0.9640 hc         1 TBV       0.018367
     76 H472        -6.1580    -6.3450     1.8410 hc         1 TBV       0.018367
     77 H473        -4.5900    -6.4600     1.0300 hc         1 TBV       0.018367
     78 H461        -5.2770    -7.2770    -2.0400 hc         1 TBV       0.018367
     79 H462        -5.8680    -8.5240    -0.9340 hc         1 TBV       0.018367
     80 H463        -4.4280    -7.5840    -0.5190 hc         1 TBV       0.018367
     81 H451        -7.4660    -7.9780     0.7310 hc         1 TBV       0.018367
     82 H452        -8.2530    -6.4050     0.5450 hc         1 TBV       0.018367
     83 H453        -8.1120    -7.4940    -0.8420 hc         1 TBV       0.018367
     84 HAB          6.8410     0.5600     6.4070 ha         1 TBV       0.081000
     85 HBB1         4.0900     1.5000     7.3510 ha         1 TBV       0.098000
     86 HBB2         5.6570     1.3200     8.3670 ha         1 TBV       0.098000
     87 HA1          1.9730     0.0080     2.0530 hn         1 TBV       0.155700
     88 CMD         -1.4990    -4.7430     1.1030 c3         1 TBV       0.101200
     89 CMC         -6.5920    -3.1410    -3.2120 c3         1 TBV       0.113200
     90 CAD         -0.4070    -2.0150     2.3520 c3         1 TBV       0.071900
     91 CAC         -3.4670    -2.4250    -3.7610 cf         1 TBV      -0.032200
@<TRIPOS>BOND
     1     1     5 1   
     2     1    33 1   
     3     1    44 1   
     4     1    45 1   
     5     2     8 1   
     6     2    16 2   
     7     2    46 1   
     8     3    27 1   
     9     3    30 1   
    10     3    47 1   
    11     3    48 1   
    12     4     5 1   
    13     4     8 1   
    14     4    87 1   
    15     5     6 2   
    16     6     7 1   
    17     6     9 1   
    18     7     8 2   
    19     7    14 1   
    20     9    10 1   
    21     9    49 1   
    22     9    50 1   
    23    10    11 1   
    24    10    54 1   
    25    10    55 1   
    26    11    12 1   
    27    11    13 1   
    28    14    51 1   
    29    14    52 1   
    30    14    53 1   
    31    15    16 1   
    32    15    19 1   
    33    15    56 1   
    34    16    17 1   
    35    17    18 2   
    36    17    20 1   
    37    18    19 1   
    38    18    21 1   
    39    19    42 2   
    40    20    57 1   
    41    20    58 1   
    42    20    59 1   
    43    21    22 2   
    44    21    84 1   
    45    22    85 1   
    46    22    86 1   
    47    23    24 1   
    48    23    27 1   
    49    23    60 1   
    50    24    25 2   
    51    24    34 1   
    52    25    26 1   
    53    25    89 1   
    54    26    27 2   
    55    26    91 1   
    56    28    65 1   
    57    28    66 1   
    58    28    91 2   
    59    29    30 1   
    60    29    33 1   
    61    29    67 1   
    62    30    31 2   
    63    31    32 1   
    64    31    88 1   
    65    32    33 2   
    66    32    90 1   
    67    34    41 1   
    68    35    37 1   
    69    35    73 1   
    70    35    74 1   
    71    35    90 1   
    72    36    41 1   
    73    36    78 1   
    74    36    79 1   
    75    36    80 1   
    76    37    38 1   
    77    37    39 1   
    78    40    41 1   
    79    40    75 1   
    80    40    76 1   
    81    40    77 1   
    82    41    43 1   
    83    43    81 1   
    84    43    82 1   
    85    43    83 1   
    86    61    89 1   
    87    62    89 1   
    88    63    89 1   
    89    64    91 1   
    90    68    88 1   
    91    69    88 1   
    92    70    88 1   
    93    71    90 1   
    94    72    90 1   
@<TRIPOS>SUBSTRUCTURE
     1 TBV         1 TEMP              0 ****  ****    0 ROOT
