@<TRIPOS>MOLECULE
molecule
   91    94     1     0     0
SMALL
bcc


@<TRIPOS>ATOM
      1 CHA          0.0000     0.0000     0.0000 c3         1 TBV       0.068200
      2 CHB          4.7430     0.0000     1.5490 ce         1 TBV      -0.070200
      3 CHD         -1.7360    -4.3360    -1.9850 c3         1 TBV       0.074200
      4 NA           2.2960     0.0000     1.1060 na         1 TBV      -0.146100
      5 C1A          1.5070     0.0000     0.0000 cc         1 TBV      -0.094600
      6 C2A          2.2960    -0.0010    -1.1030 cd         1 TBV      -0.140300
      7 C3A          3.6270    -0.0020    -0.6820 cd         1 TBV      -0.126300
      8 C4A          3.6150    -0.0010     0.7050 cc         1 TBV      -0.117100
      9 CAA          1.8190    -0.0020    -2.5330 c3         1 TBV       0.010900
     10 CBA          1.6570     1.4400    -3.0180 c3         1 TBV      -0.180400
     11 CGA          1.1800     1.4380    -4.4480 c          1 TBV       0.889600
     12 O1A          0.9890     0.3910    -5.0200 o          1 TBV      -0.865300
     13 O2A          0.9680     2.6000    -5.0850 o          1 TBV      -0.865300
     14 CMA          4.8460    -0.0020    -1.5670 c3         1 TBV      -0.013800
     15 NB           3.4400     0.7880     3.4880 ns         1 TBV      -0.463100
     16 C1B          4.6090     0.3410     2.8830 cd         1 TBV       0.014600
     17 C2B          5.6290     0.2910     3.8430 cd         1 TBV      -0.050200
     18 C3B          5.0870     0.7110     5.0490 cc         1 TBV      -0.159200
     19 C4B          3.6800     1.0240     4.7930 c          1 TBV       0.728700
     20 CMB          7.0540    -0.1390     3.6080 c3         1 TBV      -0.032900
     21 CAB          5.7920     0.8200     6.3390 ce         1 TBV      -0.103000
     22 CBB          5.1390     1.2390     7.4190 c2         1 TBV      -0.217000
     23 NC          -4.0960    -5.1040    -1.3650 na         1 TBV      -0.204100
     24 C1C         -5.3860    -4.7970    -1.6820 cc         1 TBV       0.080800
     25 C2C         -5.3850    -3.7930    -2.5870 cd         1 TBV      -0.171300
     26 C3C         -3.9800    -3.4620    -2.8410 cd         1 TBV      -0.121800
     27 C4C         -3.2410    -4.3010    -2.0630 cc         1 TBV      -0.083600
     28 CBC         -3.9090    -2.3690    -5.0100 c2         1 TBV      -0.232000
     29 ND          -0.8580    -2.0390    -1.2820 na         1 TBV      -0.142100
     30 C1D         -1.2610    -3.3090    -0.9900 cc         1 TBV      -0.136600
     31 C2D         -1.1590    -3.4870     0.3430 cd         1 TBV      -0.155300
     32 C3D         -0.6780    -2.2840     0.8940 cd         1 TBV      -0.134300
     33 C4D         -0.5020    -1.4150    -0.1230 cc         1 TBV      -0.108600
     34 OC          -6.4910    -5.4010    -1.1720 os         1 TBV      -0.309900
     35 CBD          1.0390    -2.3900     2.6800 c3         1 TBV      -0.192400
     36 C46         -5.3990    -7.5500    -0.9990 c3         1 TBV      -0.111100
     37 CGD          1.3100    -2.1220     4.1380 c          1 TBV       0.877600
     38 O2D          0.4350    -1.6770     4.8420 o          1 TBV      -0.855800
     39 O1D          2.5220    -2.3790     4.6540 o          1 TBV      -0.855800
     40 C47         -5.5840    -6.0320     0.9770 c3         1 TBV      -0.111100
     41 C44         -6.2790    -6.5120    -0.2990 c3         1 TBV       0.140800
     42 OB           2.8710     1.4250     5.6120 o          1 TBV      -0.625500
     43 C45         -7.6250    -7.1430     0.0600 c3         1 TBV      -0.111100
     44 HHA1        -0.3610     0.4320     0.9250 hc         1 TBV       0.064200
     45 HHA2        -0.3610     0.5860    -0.8370 hc         1 TBV       0.064200
     46 HHB          5.7000    -0.3390     1.1710 ha         1 TBV       0.144000
     47 HHD1        -1.4140    -5.3210    -1.6700 hc         1 TBV       0.058200
     48 HHD2        -1.3190    -4.1140    -2.9600 hc         1 TBV       0.058200
     49 HAA1         2.5440    -0.5130    -3.1550 hc         1 TBV       0.041700
     50 HAA2         0.8660    -0.5130    -2.5950 hc         1 TBV       0.041700
     51 HMA1         5.4700    -0.8530    -1.3220 hc         1 TBV       0.032367
     52 HMA2         5.4060     0.9130    -1.4120 hc         1 TBV       0.032367
     53 HMA3         4.5400    -0.0660    -2.6040 hc         1 TBV       0.032367
     54 HBA1         0.9320     1.9510    -2.3960 hc         1 TBV       0.032700
     55 HBA2         2.6100     1.9510    -2.9570 hc         1 TBV       0.032700
     56 HB           2.5600     0.9150     3.0280 hn         1 TBV       0.344500
     57 HMB1         7.5610     0.6030     3.0040 hc         1 TBV       0.040033
     58 HMB2         7.0640    -1.0920     3.0930 hc         1 TBV       0.040033
     59 HMB3         7.5630    -0.2390     4.5600 hc         1 TBV       0.040033
     60 HC          -3.8170    -5.8140    -0.7170 hn         1 TBV       0.295700
     61 HMC1        -7.4120    -3.1450    -2.5040 hc         1 TBV       0.031700
     62 HMC2        -6.3520    -2.1190    -3.4800 hc         1 TBV       0.031700
     63 HMC3        -6.8790    -3.6890    -4.1010 hc         1 TBV       0.031700
     64 HAC         -2.7300    -1.7110    -3.4150 ha         1 TBV       0.138000
     65 HBC1        -3.5330    -1.6090    -5.6840 ha         1 TBV       0.111500
     66 HBC2        -4.6460    -3.0830    -5.3570 ha         1 TBV       0.111500
     67 HD          -0.8290    -1.6330    -2.1960 hn         1 TBV       0.305700
     68 HMD1        -1.6710    -5.5530     0.4050 hc         1 TBV       0.026033
     69 HMD2        -0.6780    -5.0010     1.7600 hc         1 TBV       0.026033
     70 HMD3        -2.3940    -4.5780     1.6910 hc         1 TBV       0.026033
     71 HAD1        -0.5630    -0.9640     2.5610 hc         1 TBV       0.044200
     72 HAD2        -1.0800    -2.6080     2.9600 hc         1 TBV       0.044200
     73 HBD1         1.7130    -1.7980     2.0720 hc         1 TBV       0.035700
     74 HBD2         1.1960    -3.4420     2.4710 hc         1 TBV       0.035700
     75 H471        -6.1710    -6.3240     1.8390 hc         1 TBV       0.047144
     76 H472        -4.6000    -6.4800     1.0420 hc         1 TBV       0.047144
     77 H473        -5.4890    -4.9530     0.9530 hc         1 TBV       0.047144
     78 H461        -4.4150    -7.5530    -0.5470 hc         1 TBV       0.047144
     79 H462        -5.3130    -7.3000    -2.0500 hc         1 TBV       0.047144
     80 H463        -5.8460    -8.5310    -0.8960 hc         1 TBV       0.047144
     81 H451        -8.1050    -7.5080    -0.8410 hc         1 TBV       0.047144
     82 H452        -8.2580    -6.4010     0.5300 hc         1 TBV       0.047144
     83 H453        -7.4670    -7.9680     0.7440 hc         1 TBV       0.047144
     84 HAB          6.8410     0.5600     6.4070 ha         1 TBV       0.105000
     85 HBB1         5.6570     1.3200     8.3670 ha         1 TBV       0.123000
     86 HBB2         4.0900     1.5000     7.3510 ha         1 TBV       0.123000
     87 HA1          1.9730     0.0070     2.0530 hn         1 TBV       0.319700
     88 CMD         -1.4990    -4.7430     1.1030 c3         1 TBV      -0.006800
     89 CMC         -6.5920    -3.1410    -3.2120 c3         1 TBV       0.000200
     90 CAD         -0.4070    -2.0150     2.3520 c3         1 TBV       0.006900
     91 CAC         -3.4670    -2.4250    -3.7610 cf         1 TBV      -0.069200
@<TRIPOS>BOND
     1     1     5 1
     2     1    33 1
     3     2     8 1
     4     2    16 2
     5     3    27 1
     6     3    30 1
     7     4     5 1
     8     4     8 1
     9     4    87 1
    10     5     6 2
    11     6     7 1
    12     6     9 1
    13     7     8 2
    14     7    14 1
    15     9    10 1
    16    10    11 1
    17    11    12 1
    18    11    13 1
    19    15    16 1
    20    15    19 1
    21    16    17 1
    22    17    20 1
    23    17    18 2
    24    23    24 1
    25    23    27 1
    26    24    25 2
    27    24    34 1
    28    25    26 1
    29    25    89 1
    30    26    27 2
    31    26    91 1
    32    91    28 2
    33    29    30 1
    34    29    33 1
    35    30    31 2
    36    31    32 1
    37    31    88 1
    38    32    33 2
    39    32    90 1
    40    90    35 1
    41    35    37 1
    42    37    39 1
    43    37    38 1
    44    34    41 1
    45    41    40 1
    46    41    36 1
    47    41    43 1
    48    18    21 1
    49    18    19 1
    50    21    22 2
    51    19    42 2
    52     1    44 1
    53     1    45 1
    54     2    46 1
    55     3    47 1
    56     3    48 1
    57     9    49 1
    58     9    50 1
    59    14    51 1
    60    14    52 1
    61    14    53 1
    62    10    54 1
    63    10    55 1
    64    15    56 1
    65    20    57 1
    66    20    58 1
    67    20    59 1
    68    23    60 1
    69    89    61 1
    70    89    62 1
    71    89    63 1
    72    91    64 1
    73    28    65 1
    74    28    66 1
    75    29    67 1
    76    88    68 1
    77    88    69 1
    78    88    70 1
    79    90    71 1
    80    90    72 1
    81    35    73 1
    82    35    74 1
    83    40    75 1
    84    40    76 1
    85    40    77 1
    86    36    78 1
    87    36    79 1
    88    36    80 1
    89    43    81 1
    90    43    82 1
    91    43    83 1
    92    21    84 1
    93    22    85 1
    94    22    86 1
@<TRIPOS>SUBSTRUCTURE
     1 TBV         1 TEMP              0 ****  ****    0 ROOT
