@<TRIPOS>MOLECULE
molecule
   43    44     1     0     0
SMALL
bcc


@<TRIPOS>ATOM
      1 C1           0.0000     0.0000     0.0000 ca         1 TBX      -0.118000
      2 C2           1.3820     0.0000     0.0000 ca         1 TBX      -0.118000
      3 C3           2.0730     0.0000     1.1970 ca         1 TBX      -0.084300
      4 C4           1.3840     0.0010     2.3950 ca         1 TBX      -0.118000
      5 C5           0.0010     0.0010     2.3960 ca         1 TBX      -0.118000
      6 C6          -0.6920     0.0060     1.1980 ca         1 TBX       0.025400
      7 Cl1         -2.4280     0.0060     1.1990 cl         1 TBX      -0.109400
      8 C12          3.5800     0.0000     1.1970 c3         1 TBX      -0.033100
      9 C15          4.0910     1.4420     1.1950 c3         1 TBX      -0.107400
     10 C18          5.6090     1.4460     1.0070 c3         1 TBX       0.137800
     11 C19          6.0120     2.6280     0.1240 c3         1 TBX       0.037300
     12 N22          7.4450     2.5560    -0.1660 na         1 TBX      -0.061400
     13 C23          8.0390     1.8120    -1.1160 cc         1 TBX       0.454400
     14 N24          9.3280     2.0270    -1.0540 nd         1 TBX      -0.763000
     15 C25          9.5940     2.8960    -0.0800 cd         1 TBX       0.564900
     16 N26          8.4730     3.2530     0.4890 nc         1 TBX      -0.553800
     17 O29          6.0150     0.2250     0.3840 oh         1 TBX      -0.588800
     18 C31          6.2920     1.5730     2.3700 c3         1 TBX      -0.047000
     19 C32          5.6430     0.6020     3.3590 c3         1 TBX      -0.092100
     20 C36          7.7790     1.2400     2.2310 c3         1 TBX      -0.092100
     21 C40          6.1370     3.0060     2.8870 c3         1 TBX      -0.092100
     22 H1          -0.5420     0.0020    -0.9380 ha         1 TBX       0.144500
     23 H2           1.9230    -0.0030    -0.9380 ha         1 TBX       0.135500
     24 H3           1.9260    -0.0010     3.3330 ha         1 TBX       0.135500
     25 H4          -0.5400     0.0040     3.3350 ha         1 TBX       0.144500
     26 H5           3.9420    -0.5100     2.0810 hc         1 TBX       0.061700
     27 H6           3.9410    -0.5110     0.3120 hc         1 TBX       0.061700
     28 H7           3.8430     1.9140     2.1390 hc         1 TBX       0.054700
     29 H8           3.6250     1.9900     0.3850 hc         1 TBX       0.054700
     30 H9           5.7940     3.5550     0.6400 h1         1 TBX       0.074700
     31 H10          5.4530     2.5920    -0.8040 h1         1 TBX       0.074700
     32 H11          7.5370     1.1510    -1.8130 h5         1 TBX       0.066100
     33 H12         10.5800     3.2540     0.1920 h5         1 TBX       0.079100
     34 H13          5.6890     0.2000    -0.5000 ho         1 TBX       0.396000
     35 H14          4.6370     0.9360     3.5860 hc         1 TBX       0.043922
     36 H15          5.6050    -0.3880     2.9200 hc         1 TBX       0.043922
     37 H16          6.2270     0.5710     4.2710 hc         1 TBX       0.043922
     38 H17          8.0820     0.5950     3.0470 hc         1 TBX       0.043922
     39 H18          8.3580     2.1550     2.2590 hc         1 TBX       0.043922
     40 H19          7.9480     0.7340     1.2880 hc         1 TBX       0.043922
     41 H20          6.3290     3.0280     3.9530 hc         1 TBX       0.043922
     42 H21          6.8440     3.6510     2.3790 hc         1 TBX       0.043922
     43 H22          5.1290     3.3520     2.6940 hc         1 TBX       0.043922
@<TRIPOS>BOND
     1     7     6 1
     2     6     1 ar
     3     6     5 ar
     4     1     2 ar
     5     5     4 ar
     6     2     3 ar
     7     4     3 ar
     8     3     8 1
     9     8     9 1
    10    20    18 1
    11    21    18 1
    12     9    10 1
    13    18    10 1
    14    18    19 1
    15    10    11 1
    16    10    17 1
    17    16    15 2
    18    16    12 1
    19    11    12 1
    20    15    14 1
    21    12    13 1
    22    13    14 2
    23     1    22 1
    24     2    23 1
    25     4    24 1
    26     5    25 1
    27     8    26 1
    28     8    27 1
    29     9    28 1
    30     9    29 1
    31    11    30 1
    32    11    31 1
    33    13    32 1
    34    15    33 1
    35    17    34 1
    36    19    35 1
    37    19    36 1
    38    19    37 1
    39    20    38 1
    40    20    39 1
    41    20    40 1
    42    21    41 1
    43    21    42 1
    44    21    43 1
@<TRIPOS>SUBSTRUCTURE
     1 TBX         1 TEMP              0 ****  ****    0 ROOT
