@<TRIPOS>MOLECULE
TBZ
   70    77     1     0     0
SMALL
bcc


@<TRIPOS>ATOM
      1 N1           0.0000     0.0000     0.0000 nz         1 TBZ       0.088400
      2 C1           1.4680     0.0000     0.0000 c3         1 TBZ      -0.108500
      3 C2           2.0210     0.0000     1.4490 c3         1 TBZ       0.130800
      4 N2           3.3740     0.5920     1.2960 nh         1 TBZ      -0.348000
      5 C3           3.2310     1.6760     0.3010 c3         1 TBZ       0.134800
      6 C4           2.0160     1.3260    -0.5780 c3         1 TBZ      -0.030400
      7 C5           3.6850     1.2030     2.5150 ca         1 TBZ      -0.033400
      8 C6           2.7610     2.0370     3.1220 ca         1 TBZ      -0.137000
      9 C7           3.0740     2.6410     4.3310 ca         1 TBZ      -0.273200
     10 C8           4.3230     2.4030     4.9330 ca         1 TBZ       0.088400
     11 C9           5.2410     1.5570     4.3020 ca         1 TBZ      -0.013000
     12 C10          4.9220     0.9690     3.1120 ca         1 TBZ      -0.090000
     13 N3           2.3970     3.5020     5.1750 na         1 TBZ       0.261700
     14 C11          3.2240     3.7620     6.2370 cc         1 TBZ       0.317400
     15 N4           4.3550     3.1160     6.0850 nd         1 TBZ      -0.509100
     16 C12          2.8930     4.6400     7.3770 ca         1 TBZ      -0.139900
     17 C13          3.2720     4.2760     8.6680 ca         1 TBZ      -0.015000
     18 C14          2.9590     5.1050     9.7320 ca         1 TBZ      -0.293200
     19 C15          2.2600     6.3070     9.5050 ca         1 TBZ       0.087400
     20 C16          1.8870     6.6560     8.2020 ca         1 TBZ      -0.035000
     21 C17          2.1990     5.8360     7.1590 ca         1 TBZ      -0.119000
     22 N5           3.1810     5.0390    11.0940 na         1 TBZ       0.282700
     23 C18          2.6320     6.1660    11.6460 cc         1 TBZ       0.300400
     24 N6           2.0890     6.9010    10.7040 nd         1 TBZ      -0.518100
     25 C19          2.6440     6.5000    13.0840 ca         1 TBZ      -0.126900
     26 C20          2.8580     7.8160    13.4900 ca         1 TBZ      -0.022000
     27 C21          2.8670     8.1220    14.8410 ca         1 TBZ      -0.291200
     28 C22          2.6610     7.1060    15.7940 ca         1 TBZ       0.083400
     29 C23          2.4470     5.7900    15.3670 ca         1 TBZ      -0.036000
     30 C24          2.4390     5.4950    14.0380 ca         1 TBZ      -0.117000
     31 N7           3.0470     9.2920    15.5560 na         1 TBZ       0.277700
     32 C25          2.9490     8.9690    16.8830 cc         1 TBZ       0.292400
     33 N8           2.7280     7.6830    17.0120 nd         1 TBZ      -0.514100
     34 C26          3.0780     9.9260    18.0010 ca         1 TBZ      -0.161900
     35 C27          4.0390    10.9380    17.9500 ca         1 TBZ      -0.031000
     36 C28          4.1540    11.8310    18.9930 ca         1 TBZ      -0.184000
     37 C29          3.3220    11.7180    20.1000 ca         1 TBZ       0.152100
     38 C30          2.3640    10.7120    20.1560 ca         1 TBZ      -0.184000
     39 C31          2.2400     9.8190    19.1140 ca         1 TBZ      -0.031000
     40 O1           3.4410    12.5960    21.1290 os         1 TBZ      -0.276900
     41 C32          4.4950    13.4970    20.7830 c3         1 TBZ       0.215700
     42 HN11        -0.3340     0.0770    -0.9400 hn         1 TBZ       0.222800
     43 HN12        -0.3340     0.7760     0.5370 hn         1 TBZ       0.222800
     44 HN13        -0.3340    -0.8530     0.4030 hn         1 TBZ       0.222800
     45 H1           1.8570    -0.8450    -0.5550 hx         1 TBZ       0.109700
     46 H21          2.0890    -1.0120     1.8300 h1         1 TBZ       0.045200
     47 H22          1.4060     0.6180     2.0910 h1         1 TBZ       0.045200
     48 H31A         3.0600     2.6200     0.8060 h1         1 TBZ       0.049700
     49 H32          4.1230     1.7350    -0.3110 h1         1 TBZ       0.049700
     50 H41          2.3250     1.1860    -1.6070 hc         1 TBZ       0.037200
     51 H42          1.2650     2.1040    -0.5070 hc         1 TBZ       0.037200
     52 H6           1.8500     2.3060     2.6020 ha         1 TBZ       0.089000
     53 H9           6.2050     1.3680     4.7580 ha         1 TBZ       0.124000
     54 H10          5.6370     0.3140     2.6290 ha         1 TBZ       0.124000
     55 HN3          1.4750     3.8660     5.0370 hn         1 TBZ       0.131700
     56 H13          3.7060     3.3010     8.8500 ha         1 TBZ       0.114000
     57 H16          1.3500     7.5800     8.0220 ha         1 TBZ       0.115000
     58 H17          1.9100     6.1140     6.1530 ha         1 TBZ       0.096000
     59 HN5          3.6580     4.3080    11.5850 hn         1 TBZ       0.136700
     60 H20          3.1390     8.5690    12.7630 ha         1 TBZ       0.115000
     61 H23          2.2880     5.0050    16.0970 ha         1 TBZ       0.115000
     62 H24          2.2720     4.4740    13.7150 ha         1 TBZ       0.099000
     63 HN7          3.2120    10.2020    15.1750 hn         1 TBZ       0.132700
     64 H27          4.6880    11.0260    17.0870 ha         1 TBZ       0.108500
     65 H28          4.8990    12.6160    18.9540 ha         1 TBZ       0.130000
     66 H30          1.7160    10.6290    21.0200 ha         1 TBZ       0.130000
     67 H31          1.4940     9.0350    19.1570 ha         1 TBZ       0.108500
     68 H321         4.2420    14.0150    19.8660 h1         1 TBZ       0.004700
     69 H322         5.4140    12.9410    20.6420 h1         1 TBZ       0.004700
     70 H323         4.6290    14.2190    21.5790 h1         1 TBZ       0.004700
@<TRIPOS>BOND
     1     1     2 1   
     2     1    42 1   
     3     1    43 1   
     4     1    44 1   
     5     2     3 1   
     6     2     6 1   
     7     2    45 1   
     8     3     4 1   
     9     3    46 1   
    10     3    47 1   
    11     4     5 1   
    12     4     7 1   
    13     5     6 1   
    14     5    48 1   
    15     5    49 1   
    16     6    50 1   
    17     6    51 1   
    18     7     8 ar  
    19     7    12 ar  
    20     8     9 ar  
    21     8    52 1   
    22     9    10 ar  
    23     9    13 1   
    24    10    11 ar  
    25    10    15 1   
    26    11    12 ar  
    27    11    53 1   
    28    12    54 1   
    29    13    14 1   
    30    13    55 1   
    31    14    15 2   
    32    14    16 1   
    33    16    17 ar  
    34    16    21 ar  
    35    17    18 ar  
    36    17    56 1   
    37    18    19 ar  
    38    18    22 1   
    39    19    20 ar  
    40    19    24 1   
    41    20    21 ar  
    42    20    57 1   
    43    21    58 1   
    44    22    23 1   
    45    22    59 1   
    46    23    24 2   
    47    23    25 1   
    48    25    26 ar  
    49    25    30 ar  
    50    26    27 ar  
    51    26    60 1   
    52    27    28 ar  
    53    27    31 1   
    54    28    29 ar  
    55    28    33 1   
    56    29    30 ar  
    57    29    61 1   
    58    30    62 1   
    59    31    32 1   
    60    31    63 1   
    61    32    33 2   
    62    32    34 1   
    63    34    35 ar  
    64    34    39 ar  
    65    35    36 ar  
    66    35    64 1   
    67    36    37 ar  
    68    36    65 1   
    69    37    38 ar  
    70    37    40 1   
    71    38    39 ar  
    72    38    66 1   
    73    39    67 1   
    74    40    41 1   
    75    41    68 1   
    76    41    69 1   
    77    41    70 1   
@<TRIPOS>SUBSTRUCTURE
     1 TBZ         1 TEMP              0 ****  ****    0 ROOT
