@<TRIPOS>MOLECULE
molecule
   55    59     1     0     0
SMALL
bcc


@<TRIPOS>ATOM
      1 C1           0.0000     0.0000     0.0000 cx         1 TC0      -0.141400
      2 C2           1.5300     0.0000     0.0000 cx         1 TC0      -0.141400
      3 C3           0.7650     0.0000     1.3250 cx         1 TC0       0.087500
      4 N1           0.7650    -1.2430     2.1080 n7         1 TC0      -0.779200
      5 C4           0.9870    -0.9660     3.5340 c3         1 TC0       0.211100
      6 C5           0.9810    -2.2620     4.3030 ca         1 TC0      -0.124300
      7 C6           2.1600    -2.9590     4.4910 ca         1 TC0      -0.087500
      8 C7           2.1580    -4.1460     5.1960 ca         1 TC0      -0.172000
      9 C10         -0.2040    -2.7480     4.8250 ca         1 TC0      -0.087500
     10 C9          -0.2140    -3.9350     5.5310 ca         1 TC0      -0.172000
     11 C8           0.9690    -4.6410     5.7180 ca         1 TC0       0.175600
     12 N2           0.9630    -5.8400     6.4320 nu         1 TC0      -0.765300
     13 C11         -0.2050    -6.6110     6.4970 cc         1 TC0       0.604200
     14 C12         -0.3820    -7.7670     7.2670 cc         1 TC0      -0.367300
     15 N4          -1.3220    -6.3670     5.8510 nd         1 TC0      -0.557800
     16 N3          -2.2520    -7.3620     6.1810 na         1 TC0      -0.043600
     17 C13         -1.6540    -8.2180     7.0560 cd         1 TC0       0.003700
     18 C14         -2.2710    -9.4150     7.6690 ca         1 TC0      -0.027000
     19 C19         -3.5880    -9.7570     7.3600 ca         1 TC0      -0.114500
     20 C18         -4.1620   -10.8720     7.9300 ca         1 TC0      -0.105500
     21 C15         -1.5330   -10.2050     8.5530 ca         1 TC0      -0.114500
     22 C16         -2.1070   -11.3200     9.1220 ca         1 TC0      -0.105500
     23 C17         -3.4260   -11.6590     8.8170 cp         1 TC0      -0.023000
     24 C20         -4.0440   -12.8580     9.4310 cp         1 TC0      -0.076000
     25 C21         -5.2930   -12.7640    10.0420 ca         1 TC0      -0.076000
     26 C22         -5.8660   -13.8820    10.6120 ca         1 TC0      -0.180000
     27 C23         -5.2010   -15.1020    10.5800 ca         1 TC0       0.140100
     28 O2          -5.7710   -16.1990    11.1440 oh         1 TC0      -0.521100
     29 C24         -3.9580   -15.2020     9.9730 ca         1 TC0      -0.231000
     30 C25         -3.3780   -14.0870     9.3940 ca         1 TC0       0.151100
     31 O1          -2.1620   -14.1850     8.7950 oh         1 TC0      -0.499100
     32 H11C        -0.4670    -0.9390    -0.2700 hc         1 TC0       0.076200
     33 H12C        -0.4680     0.9390    -0.2700 hc         1 TC0       0.076200
     34 H21C         1.9970    -0.9390    -0.2700 hc         1 TC0       0.076200
     35 H22C         1.9970     0.9390    -0.2700 hc         1 TC0       0.076200
     36 H3           0.7650     0.9490     1.8480 h1         1 TC0       0.073700
     37 H1          -0.1120    -1.7100     1.9920 hn         1 TC0       0.359800
     38 H41C         1.9440    -0.4740     3.6610 h1         1 TC0       0.036700
     39 H42C         0.1980    -0.3220     3.9040 h1         1 TC0       0.036700
     40 H6           3.0870    -2.5730     4.0850 ha         1 TC0       0.131000
     41 H10         -1.1260    -2.1980     4.6800 ha         1 TC0       0.131000
     42 H7           3.0820    -4.6920     5.3410 ha         1 TC0       0.146000
     43 H9          -1.1420    -4.3170     5.9380 ha         1 TC0       0.146000
     44 H2           1.7920    -6.1490     6.8990 hn         1 TC0       0.457800
     45 H12          0.3590    -8.2230     7.9130 ha         1 TC0       0.155000
     46 HA          -3.1880    -7.4310     5.8350 hn         1 TC0       0.331700
     47 H19         -4.1590    -9.1470     6.6710 ha         1 TC0       0.132000
     48 H15         -0.5090    -9.9420     8.7900 ha         1 TC0       0.132000
     49 H18         -5.1850   -11.1370     7.6910 ha         1 TC0       0.141500
     50 H16         -1.5360   -11.9320     9.8090 ha         1 TC0       0.141500
     51 H21         -5.8140   -11.8150    10.0690 ha         1 TC0       0.144000
     52 H22         -6.8370   -13.8090    11.0860 ha         1 TC0       0.145000
     53 HB          -5.5150   -16.2550    12.0500 ho         1 TC0       0.424000
     54 H24         -3.4430   -16.1550     9.9480 ha         1 TC0       0.146000
     55 HC          -2.0960   -15.0150     8.3530 ho         1 TC0       0.425000
@<TRIPOS>BOND
     1     1     2 1
     2     1     3 1
     3     2     3 1
     4     3     4 1
     5     4     5 1
     6     5     6 1
     7     6     7 ar
     8     6     9 ar
     9     7     8 ar
    10     8    11 ar
    11     9    10 ar
    12    10    11 ar
    13    11    12 1
    14    12    13 1
    15    13    14 1
    16    13    15 2
    17    14    17 2
    18    15    16 1
    19    16    17 1
    20    17    18 1
    21    18    19 ar
    22    18    21 ar
    23    19    20 ar
    24    20    23 ar
    25    21    22 ar
    26    22    23 ar
    27    23    24 1
    28    24    25 ar
    29    24    30 ar
    30    25    26 ar
    31    26    27 ar
    32    27    28 1
    33    27    29 ar
    34    29    30 ar
    35    30    31 1
    36     1    32 1
    37     1    33 1
    38     2    34 1
    39     2    35 1
    40     3    36 1
    41     4    37 1
    42     5    38 1
    43     5    39 1
    44     7    40 1
    45     9    41 1
    46     8    42 1
    47    10    43 1
    48    12    44 1
    49    14    45 1
    50    16    46 1
    51    19    47 1
    52    21    48 1
    53    20    49 1
    54    22    50 1
    55    25    51 1
    56    26    52 1
    57    28    53 1
    58    29    54 1
    59    31    55 1
@<TRIPOS>SUBSTRUCTURE
     1 TC0         1 TEMP              0 ****  ****    0 ROOT
