@<TRIPOS>MOLECULE
TC0
   55    59     1     0     0
SMALL
bcc


@<TRIPOS>ATOM
      1 C1           0.0000     0.0000     0.0000 cx         1 TC0      -0.084400
      2 C2           1.5300     0.0000     0.0000 cx         1 TC0      -0.084400
      3 C3           0.7650     0.0000     1.3250 cx         1 TC0       0.038500
      4 N1           0.7650    -1.2430     2.1080 n7         1 TC0      -0.534200
      5 C4           0.9870    -0.9660     3.5340 c3         1 TC0       0.207100
      6 C5           0.9810    -2.2620     4.3030 ca         1 TC0      -0.135300
      7 C6           2.1600    -2.9590     4.4910 ca         1 TC0      -0.058500
      8 C7           2.1580    -4.1460     5.1960 ca         1 TC0      -0.150000
      9 C10         -0.2040    -2.7480     4.8250 ca         1 TC0      -0.058500
     10 C9          -0.2140    -3.9350     5.5310 ca         1 TC0      -0.150000
     11 C8           0.9690    -4.6410     5.7180 ca         1 TC0       0.017600
     12 N2           0.9630    -5.8400     6.4320 nu         1 TC0      -0.295300
     13 C11         -0.2050    -6.6110     6.4970 cc         1 TC0       0.482200
     14 C12         -0.3820    -7.7670     7.2670 cc         1 TC0      -0.362300
     15 N4          -1.3220    -6.3670     5.8510 nd         1 TC0      -0.712800
     16 N3          -2.2520    -7.3620     6.1810 na         1 TC0       0.450400
     17 C13         -1.6540    -8.2180     7.0560 cd         1 TC0      -0.160300
     18 C14         -2.2710    -9.4150     7.6690 ca         1 TC0      -0.015000
     19 C19         -3.5880    -9.7570     7.3600 ca         1 TC0      -0.095000
     20 C18         -4.1620   -10.8720     7.9300 ca         1 TC0      -0.081500
     21 C15         -1.5330   -10.2050     8.5530 ca         1 TC0      -0.095000
     22 C16         -2.1070   -11.3200     9.1220 ca         1 TC0      -0.081500
     23 C17         -3.4260   -11.6590     8.8170 cp         1 TC0      -0.015000
     24 C20         -4.0440   -12.8580     9.4310 cp         1 TC0      -0.090000
     25 C21         -5.2930   -12.7640    10.0420 ca         1 TC0      -0.039000
     26 C22         -5.8660   -13.8820    10.6120 ca         1 TC0      -0.172000
     27 C23         -5.2010   -15.1020    10.5800 ca         1 TC0       0.164100
     28 O2          -5.7710   -16.1990    11.1440 oh         1 TC0      -0.502100
     29 C24         -3.9580   -15.2020     9.9730 ca         1 TC0      -0.228000
     30 C25         -3.3780   -14.0870     9.3940 ca         1 TC0       0.176100
     31 O1          -2.1620   -14.1850     8.7950 oh         1 TC0      -0.480100
     32 H11C        -0.4670    -0.9390    -0.2700 hc         1 TC0       0.046700
     33 H12C        -0.4680     0.9390    -0.2700 hc         1 TC0       0.046700
     34 H21C         1.9970    -0.9390    -0.2700 hc         1 TC0       0.046700
     35 H22C         1.9970     0.9390    -0.2700 hc         1 TC0       0.046700
     36 H3           0.7650     0.9490     1.8480 h1         1 TC0       0.053700
     37 H1          -0.1120    -1.7100     1.9920 hn         1 TC0       0.257800
     38 H41C         1.9440    -0.4740     3.6610 h1         1 TC0       0.007700
     39 H42C         0.1980    -0.3220     3.9040 h1         1 TC0       0.007700
     40 H6           3.0870    -2.5730     4.0850 ha         1 TC0       0.102000
     41 H10         -1.1260    -2.1980     4.6800 ha         1 TC0       0.102000
     42 H7           3.0820    -4.6920     5.3410 ha         1 TC0       0.125000
     43 H9          -1.1420    -4.3170     5.9380 ha         1 TC0       0.125000
     44 H2           1.7920    -6.1490     6.8990 hn         1 TC0       0.284800
     45 H12          0.3590    -8.2230     7.9130 ha         1 TC0       0.140000
     46 HA          -3.1880    -7.4310     5.8350 hn         1 TC0       0.149700
     47 H19         -4.1590    -9.1470     6.6710 ha         1 TC0       0.106000
     48 H15         -0.5090    -9.9420     8.7900 ha         1 TC0       0.106000
     49 H18         -5.1850   -11.1370     7.6910 ha         1 TC0       0.113000
     50 H16         -1.5360   -11.9320     9.8090 ha         1 TC0       0.113000
     51 H21         -5.8140   -11.8150    10.0690 ha         1 TC0       0.111000
     52 H22         -6.8370   -13.8090    11.0860 ha         1 TC0       0.118000
     53 HB          -5.5150   -16.2550    12.0500 ho         1 TC0       0.406000
     54 H24         -3.4430   -16.1550     9.9480 ha         1 TC0       0.123000
     55 HC          -2.0960   -15.0150     8.3530 ho         1 TC0       0.406000
@<TRIPOS>BOND
     1     1     2 1   
     2     1     3 1   
     3     1    32 1   
     4     1    33 1   
     5     2     3 1   
     6     2    34 1   
     7     2    35 1   
     8     3     4 1   
     9     3    36 1   
    10     4     5 1   
    11     4    37 1   
    12     5     6 1   
    13     5    38 1   
    14     5    39 1   
    15     6     7 ar  
    16     6     9 ar  
    17     7     8 ar  
    18     7    40 1   
    19     8    11 ar  
    20     8    42 1   
    21     9    10 ar  
    22     9    41 1   
    23    10    11 ar  
    24    10    43 1   
    25    11    12 1   
    26    12    13 1   
    27    12    44 1   
    28    13    14 1   
    29    13    15 2   
    30    14    17 2   
    31    14    45 1   
    32    15    16 1   
    33    16    17 1   
    34    16    46 1   
    35    17    18 1   
    36    18    19 ar  
    37    18    21 ar  
    38    19    20 ar  
    39    19    47 1   
    40    20    23 ar  
    41    20    49 1   
    42    21    22 ar  
    43    21    48 1   
    44    22    23 ar  
    45    22    50 1   
    46    23    24 1   
    47    24    25 ar  
    48    24    30 ar  
    49    25    26 ar  
    50    25    51 1   
    51    26    27 ar  
    52    26    52 1   
    53    27    28 1   
    54    27    29 ar  
    55    28    53 1   
    56    29    30 ar  
    57    29    54 1   
    58    30    31 1   
    59    31    55 1   
@<TRIPOS>SUBSTRUCTURE
     1 TC0         1 TEMP              0 ****  ****    0 ROOT
