@<TRIPOS>MOLECULE
molecule
   69    71     1     0     0
SMALL
bcc


@<TRIPOS>ATOM
      1 C1           0.0000     0.0000     0.0000 ca         1 TC2      -0.158100
      2 C2           1.4000     0.0000     0.0000 ca         1 TC2       0.159100
      3 C3           2.0880     0.0000     1.2090 ca         1 TC2       0.056100
      4 C4           1.3890    -0.0010     2.4040 ca         1 TC2      -0.127500
      5 C5           0.0040    -0.0010     2.4030 ca         1 TC2      -0.136000
      6 C6          -0.6920    -0.0010     1.2140 ca         1 TC2      -0.103000
      7 C7          -0.7420     0.0060    -1.2760 c          1 TC2       0.674200
      8 O8          -0.1360     0.0110    -2.3300 o          1 TC2      -0.578100
      9 N9          -2.0890     0.0060    -1.2720 ns         1 TC2      -0.592900
     10 C10         -2.8250     0.0120    -2.5380 c3         1 TC2       0.114000
     11 C11         -4.3280     0.0100    -2.2550 c3         1 TC2       0.139800
     12 N12         -5.0670     0.0160    -3.5250 n3         1 TC2      -0.715600
     13 C13         -4.8500    -1.2330    -4.2660 c3         1 TC2       0.139800
     14 O14          2.0820     0.0010    -1.1730 oh         1 TC2      -0.483100
     15 O15          3.4480     0.0000     1.2170 oh         1 TC2      -0.515100
     16 C16         -5.2670    -1.0390    -5.7250 c3         1 TC2       0.114000
     17 N17         -5.1140    -2.3030    -6.4490 ns         1 TC2      -0.592900
     18 C18         -6.4990     0.2520    -3.3000 c3         1 TC2       0.140800
     19 C19         -6.7310     1.7340    -2.9960 c3         1 TC2       0.114000
     20 N20         -8.1670     1.9860    -2.8560 ns         1 TC2      -0.583900
     21 C21         -8.6090     3.2300    -2.5860 c          1 TC2       0.662300
     22 O22         -7.8180     4.1430    -2.4590 o          1 TC2      -0.561100
     23 C23        -10.0600     3.4830    -2.4430 cc         1 TC2       0.024400
     24 N24        -10.5050     4.7500    -2.1740 n          1 TC2      -0.176500
     25 C25        -11.8210     5.0010    -2.0410 c          1 TC2       0.678700
     26 C26        -12.7590     3.9530    -2.1780 cc         1 TC2      -0.236200
     27 C27        -12.3200     2.6920    -2.4460 cd         1 TC2      -0.059000
     28 C28        -10.9440     2.4560    -2.5870 cd         1 TC2      -0.221000
     29 O29         -9.5720     5.8070    -2.0340 oh         1 TC2      -0.332100
     30 O30        -12.2040     6.1330    -1.8000 o          1 TC2      -0.632500
     31 C31         -5.4240    -2.3730    -7.7590 c          1 TC2       0.674200
     32 O32         -5.8320    -1.3850    -8.3400 o          1 TC2      -0.578100
     33 C33         -5.2680    -3.6460    -8.4890 ca         1 TC2      -0.158100
     34 C34         -5.5900    -3.7210    -9.8480 ca         1 TC2       0.159100
     35 C35         -5.4400    -4.9270   -10.5260 ca         1 TC2       0.056100
     36 C36         -4.9730    -6.0440    -9.8550 ca         1 TC2      -0.127500
     37 C37         -4.6540    -5.9700    -8.5080 ca         1 TC2      -0.136000
     38 C38         -4.7930    -4.7810    -7.8260 ca         1 TC2      -0.103000
     39 O39         -6.0470    -2.6230   -10.5030 oh         1 TC2      -0.483100
     40 O40         -5.7500    -5.0080   -11.8470 oh         1 TC2      -0.515100
     41 H4           1.9280    -0.0010     3.3440 ha         1 TC2       0.144000
     42 H5          -0.5350    -0.0020     3.3430 ha         1 TC2       0.138000
     43 H6          -1.7750    -0.0010     1.2210 ha         1 TC2       0.128000
     44 HN9         -2.5870     0.0240    -0.4040 hn         1 TC2       0.310500
     45 H10         -2.5640    -0.8690    -3.1120 h1         1 TC2       0.063450
     46 H10A        -2.5650     0.9000    -3.1020 h1         1 TC2       0.063450
     47 H11         -4.5890     0.8910    -1.6810 h1         1 TC2       0.041950
     48 H11A        -4.5880    -0.8780    -1.6900 h1         1 TC2       0.041950
     49 H13         -3.8010    -1.5010    -4.2230 h1         1 TC2       0.041950
     50 H13A        -5.4430    -2.0230    -3.8230 h1         1 TC2       0.041950
     51 HO14         2.5050    -0.8340    -1.2920 ho         1 TC2       0.433500
     52 HO15         3.7610     0.8550     1.4620 ho         1 TC2       0.428000
     53 H16         -6.3030    -0.7240    -5.7650 h1         1 TC2       0.063450
     54 H16A        -4.6420    -0.2820    -6.1820 h1         1 TC2       0.063450
     55 HN17        -4.7730    -3.1150    -5.9720 hn         1 TC2       0.310500
     56 H18         -6.8360    -0.3450    -2.4610 h1         1 TC2       0.042200
     57 H18A        -7.0550    -0.0260    -4.1870 h1         1 TC2       0.042200
     58 H19         -6.3360     2.3350    -3.8070 h1         1 TC2       0.066700
     59 H19A        -6.2260     1.9970    -2.0740 h1         1 TC2       0.066700
     60 HN20        -8.8200     1.2390    -2.9850 hn         1 TC2       0.315500
     61 H26        -13.8180     4.1510    -2.0700 ha         1 TC2       0.172000
     62 H27        -13.0280     1.8790    -2.5560 ha         1 TC2       0.143000
     63 H28        -10.5840     1.4560    -2.7990 ha         1 TC2       0.145000
     64 HO29        -9.7430     6.4660    -2.6870 ho         1 TC2       0.421000
     65 H36         -4.8590    -6.9820   -10.3850 ha         1 TC2       0.144000
     66 H37         -4.2870    -6.8480    -7.9910 ha         1 TC2       0.138000
     67 H38         -4.5430    -4.7280    -6.7730 ha         1 TC2       0.128000
     68 HO39        -6.9580    -2.7410   -10.7170 ho         1 TC2       0.433500
     69 HO40        -4.9570    -5.0470   -12.3550 ho         1 TC2       0.428000
@<TRIPOS>BOND
     1     6     1 ar
     2     7     1 1
     3     1     2 ar
     4     2     3 ar
     5     2    14 1
     6     4     3 ar
     7     3    15 1
     8     5     4 ar
     9     4    41 1
    10     6     5 ar
    11     5    42 1
    12     6    43 1
    13     9     7 1
    14     7     8 2
    15     9    10 1
    16     9    44 1
    17    11    10 1
    18    10    45 1
    19    10    46 1
    20    11    12 1
    21    11    47 1
    22    11    48 1
    23    13    12 1
    24    12    18 1
    25    13    16 1
    26    13    49 1
    27    13    50 1
    28    14    51 1
    29    15    52 1
    30    16    17 1
    31    16    53 1
    32    16    54 1
    33    17    31 1
    34    17    55 1
    35    18    19 1
    36    18    56 1
    37    18    57 1
    38    19    20 1
    39    19    58 1
    40    19    59 1
    41    20    21 1
    42    20    60 1
    43    22    21 2
    44    21    23 1
    45    24    23 1
    46    23    28 2
    47    29    24 1
    48    24    25 1
    49    30    25 2
    50    25    26 1
    51    26    27 2
    52    26    61 1
    53    28    27 1
    54    27    62 1
    55    28    63 1
    56    29    64 1
    57    32    31 2
    58    31    33 1
    59    33    34 ar
    60    33    38 ar
    61    39    34 1
    62    34    35 ar
    63    35    40 1
    64    35    36 ar
    65    37    36 ar
    66    36    65 1
    67    38    37 ar
    68    37    66 1
    69    38    67 1
    70    39    68 1
    71    40    69 1
@<TRIPOS>SUBSTRUCTURE
     1 TC2         1 TEMP              0 ****  ****    0 ROOT
