@<TRIPOS>MOLECULE
molecule
   17    16     1     0     0
SMALL
bcc


@<TRIPOS>ATOM
      1 C2           0.0000     0.0000     0.0000 c3         1 TC3      -0.098100
      2 C1           1.5300     0.0000     0.0000 c3         1 TC3       0.209400
      3 O3           2.0070     0.0000     1.3470 os         1 TC3      -0.581200
      4 P            3.5710     0.0010     1.7240 p5         1 TC3       1.290700
      5 O2           4.2820    -0.9870     0.8810 o          1 TC3      -0.818000
      6 N            4.2140     1.5330     1.4560 n7         1 TC3      -0.945300
      7 C3           3.5310     2.5400     2.2790 c3         1 TC3       0.205100
      8 OXT          3.7500    -0.3920     3.2760 o          1 TC3      -0.818000
      9 H21C        -0.3610    -0.8940     0.4940 hc         1 TC3       0.026033
     10 H22C        -0.3610     0.0190    -1.0210 hc         1 TC3       0.026033
     11 H23C        -0.3610     0.8750     0.5270 hc         1 TC3       0.026033
     12 H11C         1.8910     0.8840    -0.5110 h1         1 TC3       0.017700
     13 H12C         1.8910    -0.8850    -0.5110 h1         1 TC3       0.017700
     14 HN1          5.1850     1.6380     1.2410 hn         1 TC3       0.405800
     15 H31C         2.9680     3.2080     1.6390 h1         1 TC3       0.011367
     16 H32C         4.2660     3.1090     2.8370 h1         1 TC3       0.011367
     17 H33C         2.8570     2.0470     2.9690 h1         1 TC3       0.011367
@<TRIPOS>BOND
     1     1     2 1
     2     2     3 1
     3     3     4 1
     4     4     5 1
     5     4     6 1
     6     4     8 1
     7     6     7 1
     8     1     9 1
     9     1    10 1
    10     1    11 1
    11     2    12 1
    12     2    13 1
    13     6    14 1
    14     7    15 1
    15     7    16 1
    16     7    17 1
@<TRIPOS>SUBSTRUCTURE
     1 TC3         1 TEMP              0 ****  ****    0 ROOT
