@<TRIPOS>MOLECULE
molecule
   61    60     1     0     0
SMALL
bcc


@<TRIPOS>ATOM
      1 C1           0.0000     0.0000     0.0000 c3         1 TC4      -0.281600
      2 C2           1.5230     0.0000     0.0000 c3         1 TC4      -0.060400
      3 C3           2.0990     0.0000     1.4160 c3         1 TC4      -0.099400
      4 C4           3.6200     0.0230     1.3950 c3         1 TC4      -0.085100
      5 C5          -2.6090    -0.1670     1.5790 c3         1 TC4       0.133400
      6 C6          -3.9910    -0.0410     2.2090 c3         1 TC4       0.165100
      7 C8          -6.3460    -1.1550    -1.8790 c3         1 TC4       0.123000
      8 C9          -7.4800    -2.1340    -1.5930 c3         1 TC4      -0.108400
      9 C10         -8.7730    -1.4300    -1.1780 c3         1 TC4      -0.083400
     10 C11         -9.9020    -2.4240    -0.9570 c3         1 TC4      -0.089100
     11 C12         -4.0470     1.1150     3.2000 c3         1 TC4       0.158400
     12 C13         -5.5800     2.2000     4.6470 c          1 TC4       0.755100
     13 C14         -7.4380     3.0910     6.0450 c3         1 TC4       0.124000
     14 C15         -8.0240     4.3380     5.3920 c3         1 TC4      -0.108400
     15 C16         -9.1760     4.0160     4.4380 c3         1 TC4      -0.083400
     16 C17         -9.7790     5.2830     3.8490 c3         1 TC4      -0.089100
     17 N1          -5.9950    -0.3630    -0.7230 ns         1 TC4      -0.568900
     18 N2          -6.8900     2.1680     5.0780 ns         1 TC4      -0.574900
     19 O1          -0.5800     2.6320    -0.1800 o          1 TC4      -0.734300
     20 O2          -2.2860     1.0240     0.8830 os         1 TC4      -0.526200
     21 O3          -4.9450     0.2180     1.1750 os         1 TC4      -0.407900
     22 O4          -4.3840    -1.7720     0.1720 o          1 TC4      -0.601000
     23 O5          -5.3640     1.2020     3.7330 os         1 TC4      -0.433900
     24 O6          -4.7230     2.9960     5.0160 o          1 TC4      -0.578000
     25 P1          -0.7240     1.4680     0.7650 p5         1 TC4       1.134300
     26 H11         -0.3460    -0.0620    -1.0250 hc         1 TC4       0.082200
     27 H12         -0.3460    -0.8760     0.5360 hc         1 TC4       0.082200
     28 H21          1.8740    -0.8820    -0.5220 hc         1 TC4       0.056700
     29 H22          1.8740     0.8820    -0.5220 hc         1 TC4       0.056700
     30 H31          1.7660    -0.8910     1.9340 hc         1 TC4       0.034200
     31 H32          1.7390     0.8740     1.9450 hc         1 TC4       0.034200
     32 H41          3.9880    -0.8510     0.8710 hc         1 TC4       0.038033
     33 H42          3.9950     0.0180     2.4110 hc         1 TC4       0.038033
     34 H43          3.9610     0.9180     0.8880 hc         1 TC4       0.038033
     35 H51         -1.8740    -0.3400     2.3560 h1         1 TC4       0.057200
     36 H52         -2.6040    -1.0000     0.8870 h1         1 TC4       0.057200
     37 H6          -4.2450    -0.9650     2.7140 h1         1 TC4       0.074700
     38 H81         -5.4740    -1.7130    -2.1990 h1         1 TC4       0.057200
     39 H82         -6.6500    -0.4910    -2.6790 h1         1 TC4       0.057200
     40 H91         -7.1730    -2.8010    -0.7970 hc         1 TC4       0.052700
     41 H92         -7.6710    -2.7180    -2.4850 hc         1 TC4       0.052700
     42 H101        -9.0620    -0.7330    -1.9550 hc         1 TC4       0.038200
     43 H102        -8.5990    -0.8830    -0.2590 hc         1 TC4       0.038200
     44 H111       -10.7970    -1.8940    -0.6550 hc         1 TC4       0.034700
     45 H112        -9.6190    -3.1260    -0.1820 hc         1 TC4       0.034700
     46 H113       -10.0940    -2.9620    -1.8780 hc         1 TC4       0.034700
     47 H121        -3.3410     0.9400     4.0030 h1         1 TC4       0.063700
     48 H122        -3.7990     2.0400     2.6940 h1         1 TC4       0.063700
     49 H141        -8.2190     2.5890     6.6050 h1         1 TC4       0.055700
     50 H142        -6.6530     3.3890     6.7290 h1         1 TC4       0.055700
     51 H151        -7.2420     4.8430     4.8380 hc         1 TC4       0.054200
     52 H152        -8.3870     5.0010     6.1680 hc         1 TC4       0.054200
     53 H161        -8.8060     3.3930     3.6330 hc         1 TC4       0.037200
     54 H162        -9.9440     3.4770     4.9790 hc         1 TC4       0.037200
     55 H171       -10.5830     5.0190     3.1720 hc         1 TC4       0.035033
     56 H172       -10.1680     5.9030     4.6470 hc         1 TC4       0.035033
     57 H173        -9.0160     5.8280     3.3080 hc         1 TC4       0.035033
     58 H1          -6.4690     0.5080    -0.5870 hn         1 TC4       0.330500
     59 H2          -7.4950     1.4670     4.6990 hn         1 TC4       0.325500
     60 HP1         -0.1580     1.7510     2.0200 hp         1 TC4      -0.067400
     61 C7          -5.0460    -0.7390     0.2030 c          1 TC4       0.761100
@<TRIPOS>BOND
     1     1     2 1
     2     1    25 1
     3     1    26 1
     4     1    27 1
     5     2     3 1
     6     2    28 1
     7     2    29 1
     8     3     4 1
     9     3    30 1
    10     3    31 1
    11     4    32 1
    12     4    33 1
    13     4    34 1
    14     5     6 1
    15     5    20 1
    16     5    35 1
    17     5    36 1
    18     6    11 1
    19     6    21 1
    20     6    37 1
    21    61    17 1
    22    61    21 1
    23    61    22 2
    24     7     8 1
    25     7    17 1
    26     7    38 1
    27     7    39 1
    28     8     9 1
    29     8    40 1
    30     8    41 1
    31     9    10 1
    32     9    42 1
    33     9    43 1
    34    10    44 1
    35    10    45 1
    36    10    46 1
    37    11    23 1
    38    11    47 1
    39    11    48 1
    40    12    18 1
    41    12    23 1
    42    12    24 2
    43    13    14 1
    44    13    18 1
    45    13    49 1
    46    13    50 1
    47    14    15 1
    48    14    51 1
    49    14    52 1
    50    15    16 1
    51    15    53 1
    52    15    54 1
    53    16    55 1
    54    16    56 1
    55    16    57 1
    56    17    58 1
    57    18    59 1
    58    19    25 2
    59    20    25 1
    60    60    25 1
@<TRIPOS>SUBSTRUCTURE
     1 TC4         1 TEMP              0 ****  ****    0 ROOT
