@<TRIPOS>MOLECULE
molecule
   23    22     1     0     0
SMALL
bcc


@<TRIPOS>ATOM
      1 C5           0.0000     0.0000     0.0000 c3         1 TC5      -0.094100
      2 C4           1.5300     0.0000     0.0000 c3         1 TC5      -0.095400
      3 C3           2.0400     0.0000     1.4420 c3         1 TC5       0.214800
      4 N            3.5090    -0.0000     1.4420 n7         1 TC5      -0.941300
      5 P            4.1120     1.1110     2.5530 p5         1 TC5       1.288700
      6 O2           5.5910     1.0830     2.5250 o          1 TC5      -0.816000
      7 O3           3.5960     2.5870     2.1710 os         1 TC5      -0.579200
      8 C1           4.0540     3.2980     1.0190 c3         1 TC5       0.207400
      9 C2           3.3650     4.6620     0.9540 c3         1 TC5      -0.098100
     10 OXT          3.5960     0.7280     4.0300 o          1 TC5      -0.816000
     11 H51C        -0.3610    -0.8820     0.5140 hc         1 TC5       0.022367
     12 H52C        -0.3610    -0.0040    -1.0210 hc         1 TC5       0.022367
     13 H53C        -0.3610     0.8870     0.5070 hc         1 TC5       0.022367
     14 H41C         1.8910     0.8840    -0.5110 hc         1 TC5       0.034700
     15 H42C         1.8910    -0.8850    -0.5110 hc         1 TC5       0.034700
     16 H31C         1.6780    -0.8840     1.9530 h1         1 TC5       0.035200
     17 H32C         1.6780     0.8850     1.9530 h1         1 TC5       0.035200
     18 H            4.0090    -0.8470     1.2600 hn         1 TC5       0.406800
     19 H11C         3.8170     2.7310     0.1270 h1         1 TC5       0.017200
     20 H12C         5.1260     3.4380     1.0840 h1         1 TC5       0.017200
     21 H21C         2.2920     4.5230     0.9030 hc         1 TC5       0.026700
     22 H22C         3.6140     5.2350     1.8390 hc         1 TC5       0.026700
     23 H23C         3.7020     5.1950     0.0730 hc         1 TC5       0.026700
@<TRIPOS>BOND
     1     1     2 1
     2     2     3 1
     3     3     4 1
     4     4     5 1
     5     5     6 1
     6     5     7 1
     7     5    10 1
     8     7     8 1
     9     8     9 1
    10     1    11 1
    11     1    12 1
    12     1    13 1
    13     2    14 1
    14     2    15 1
    15     3    16 1
    16     3    17 1
    17     4    18 1
    18     8    19 1
    19     8    20 1
    20     9    21 1
    21     9    22 1
    22     9    23 1
@<TRIPOS>SUBSTRUCTURE
     1 TC5         1 TEMP              0 ****  ****    0 ROOT
