@<TRIPOS>MOLECULE
molecule
   13    13     1     0     0
SMALL
bcc


@<TRIPOS>ATOM
      1 C1           0.0000     0.0000     0.0000 ca         1 TC7       0.053400
      2 C2           1.3790     0.0000     0.0000 ca         1 TC7      -0.130000
      3 C3           2.0350     0.0000     1.2160 ca         1 TC7       0.129100
      4 C4           1.2890     0.0120     2.4070 ca         1 TC7       0.010400
      5 C5          -0.0860     0.0430     2.4190 ca         1 TC7      -0.092000
      6 C6          -0.7050     0.0300     1.1780 ca         1 TC7       0.033400
      7 Cl1          2.0000     0.0510     4.0210 cl         1 TC7      -0.097400
      8 Cl3         -2.4800     0.0380     1.2190 cl         1 TC7      -0.096400
      9 O1           3.3880    -0.0240     1.2010 oh         1 TC7      -0.501100
     10 Cl5         -0.8520     0.0290    -1.5550 cl         1 TC7      -0.089400
     11 H5          -0.6510     0.0590     3.3430 ha         1 TC7       0.179000
     12 H2           1.9340    -0.0160    -0.9300 ha         1 TC7       0.172000
     13 H1           3.7180     0.8590     1.2090 ho         1 TC7       0.430000
@<TRIPOS>BOND
     1     4     5 ar
     2     4     3 ar
     3     4     7 1
     4     5     6 ar
     5     6     1 ar
     6     6     8 1
     7     1     2 ar
     8     1    10 1
     9     2     3 ar
    10     3     9 1
    11     5    11 1
    12     2    12 1
    13     9    13 1
@<TRIPOS>SUBSTRUCTURE
     1 TC7         1 TEMP              0 ****  ****    0 ROOT
