@<TRIPOS>MOLECULE
TC7
   13    13     1     0     0
SMALL
bcc


@<TRIPOS>ATOM
      1 C1         -0.0710   -0.0330   -0.0550 ca        1 TC7      0.052400
      2 C2          1.3220    0.0120   -0.0650 ca        1 TC7     -0.145000
      3 C3          2.0240    0.1170    1.1480 ca        1 TC7      0.147100
      4 C4          1.3230    0.1780    2.3660 ca        1 TC7     -0.067600
      5 C5         -0.0730    0.1330    2.3660 ca        1 TC7     -0.073000
      6 C6         -0.7720    0.0280    1.1620 ca        1 TC7     -0.014600
      7 CL1         2.1500    0.3060    3.8450 cl        1 TC7     -0.078400
      8 CL3        -2.4660   -0.0250    1.2000 cl        1 TC7     -0.060400
      9 O1          3.3900    0.1540    1.0400 oh        1 TC7     -0.483100
     10 CL5        -0.8930   -0.1600   -1.5300 cl        1 TC7     -0.055400
     11 H5         -0.6240    0.1800    3.3200 ha        1 TC7      0.167000
     12 H2          1.8890   -0.0350   -1.0080 ha        1 TC7      0.174000
     13 H1          3.7680    0.2280    1.9310 ho        1 TC7      0.435000
@<TRIPOS>BOND
     1    1    2 ar  
     2    1    6 ar  
     3    1   10 1   
     4    2    3 ar  
     5    2   12 1   
     6    3    4 ar  
     7    3    9 1   
     8    4    5 ar  
     9    4    7 1   
    10    5    6 ar  
    11    5   11 1   
    12    6    8 1   
    13    9   13 1   
@<TRIPOS>SUBSTRUCTURE
     1 TC7         1 TEMP              0 ****  ****    0 ROOT
