@<TRIPOS>MOLECULE
TC8
   31    33     1     0     0
SMALL
bcc


@<TRIPOS>ATOM
      1 C1           0.0000     0.0000     0.0000 c3         1 TC8       0.133000
      2 S2           1.8100     0.0000     0.0000 ss         1 TC8      -0.304300
      3 C3           2.1160     0.0000     1.7350 cc         1 TC8       0.351800
      4 N4           1.0910     0.0000     2.5510 nd         1 TC8      -0.558100
      5 C5           1.2510     0.0000     3.8900 ca         1 TC8       0.160400
      6 C6           0.1550    -0.0000     4.7560 ca         1 TC8      -0.100000
      7 C7           0.3630    -0.0000     6.1170 ca         1 TC8      -0.061000
      8 C8           1.6490    -0.0010     6.6410 ca         1 TC8      -0.129000
      9 C9           2.7460     0.0000     5.8080 ca         1 TC8      -0.012000
     10 C10          2.5590     0.0000     4.4270 ca         1 TC8      -0.211600
     11 C11          3.6930    -0.0000     3.4930 c          1 TC8       0.623100
     12 O12          4.8430    -0.0000     3.8950 o          1 TC8      -0.648500
     13 N13          3.4130    -0.0050     2.1680 n          1 TC8       0.189500
     14 C14          4.4600    -0.0110     1.2350 ca         1 TC8      -0.188400
     15 C15          4.9840     1.1900     0.7700 ca         1 TC8       0.173900
     16 F16          4.4880     2.3630     1.2180 f          1 TC8      -0.115400
     17 C17          6.0170     1.1800    -0.1500 ca         1 TC8      -0.145000
     18 C18          6.5270    -0.0210    -0.6090 ca         1 TC8      -0.022000
     19 C19          6.0060    -1.2170    -0.1480 ca         1 TC8      -0.145000
     20 C20          4.9780    -1.2150     0.7760 ca         1 TC8       0.173900
     21 F21          4.4740    -2.3850     1.2290 f          1 TC8      -0.115400
     22 H1          -0.3610    -0.0000    -1.0210 h1         1 TC8       0.043700
     23 H1A         -0.3610     0.8850     0.5110 h1         1 TC8       0.043700
     24 H1B         -0.3610    -0.8840     0.5110 h1         1 TC8       0.043700
     25 H6          -0.8530     0.0010     4.3590 ha         1 TC8       0.118000
     26 H7          -0.4880    -0.0010     6.7870 ha         1 TC8       0.102000
     27 H8           1.7910    -0.0010     7.7150 ha         1 TC8       0.108000
     28 H9           3.7460    -0.0010     6.2230 ha         1 TC8       0.125000
     29 H17          6.4270     2.1150    -0.5130 ha         1 TC8       0.128000
     30 H18          7.3340    -0.0260    -1.3310 ha         1 TC8       0.112000
     31 H19          6.4090    -2.1560    -0.5080 ha         1 TC8       0.128000
@<TRIPOS>BOND
     1     1     2 1   
     2     1    22 1   
     3     1    23 1   
     4     1    24 1   
     5     2     3 1   
     6     3     4 2   
     7     3    13 1   
     8     4     5 1   
     9     5     6 ar  
    10     5    10 ar  
    11     6     7 ar  
    12     6    25 1   
    13     7     8 ar  
    14     7    26 1   
    15     8     9 ar  
    16     8    27 1   
    17     9    10 ar  
    18     9    28 1   
    19    10    11 1   
    20    11    12 2   
    21    11    13 1   
    22    13    14 1   
    23    14    15 ar  
    24    14    20 ar  
    25    15    16 1   
    26    15    17 ar  
    27    17    18 ar  
    28    17    29 1   
    29    18    19 ar  
    30    18    30 1   
    31    19    20 ar  
    32    19    31 1   
    33    20    21 1   
@<TRIPOS>SUBSTRUCTURE
     1 TC8         1 TEMP              0 ****  ****    0 ROOT
