@<TRIPOS>MOLECULE
molecule
   31    33     1     0     0
SMALL
bcc


@<TRIPOS>ATOM
      1 C1           0.0000     0.0000     0.0000 c3         1 TC8      -0.008000
      2 S2           1.8100     0.0000     0.0000 ss         1 TC8      -0.183300
      3 C3           2.1160     0.0000     1.7350 cc         1 TC8       0.532800
      4 N4           1.0910     0.0000     2.5510 nd         1 TC8      -0.669100
      5 C5           1.2510     0.0000     3.8900 ca         1 TC8       0.206400
      6 C6           0.1550    -0.0000     4.7560 ca         1 TC8      -0.127000
      7 C7           0.3630    -0.0000     6.1170 ca         1 TC8      -0.089000
      8 C8           1.6490    -0.0010     6.6410 ca         1 TC8      -0.158000
      9 C9           2.7460     0.0000     5.8080 ca         1 TC8      -0.048000
     10 C10          2.5590     0.0000     4.4270 ca         1 TC8      -0.204600
     11 C11          3.6930    -0.0000     3.4930 c          1 TC8       0.717100
     12 O12          4.8430    -0.0000     3.8950 o          1 TC8      -0.605500
     13 N13          3.4130    -0.0050     2.1680 n          1 TC8      -0.272500
     14 C14          4.4600    -0.0110     1.2350 ca         1 TC8      -0.066400
     15 C15          4.9840     1.1900     0.7700 ca         1 TC8       0.189900
     16 F16          4.4880     2.3630     1.2180 f          1 TC8      -0.119400
     17 C17          6.0170     1.1800    -0.1500 ca         1 TC8      -0.184000
     18 C18          6.5270    -0.0210    -0.6090 ca         1 TC8      -0.061000
     19 C19          6.0060    -1.2170    -0.1480 ca         1 TC8      -0.184000
     20 C20          4.9780    -1.2150     0.7760 ca         1 TC8       0.189900
     21 F21          4.4740    -2.3850     1.2290 f          1 TC8      -0.119400
     22 H1          -0.3610    -0.0000    -1.0210 h1         1 TC8       0.076033
     23 H1A         -0.3610     0.8850     0.5110 h1         1 TC8       0.076033
     24 H1B         -0.3610    -0.8840     0.5110 h1         1 TC8       0.076033
     25 H6          -0.8530     0.0010     4.3590 ha         1 TC8       0.147000
     26 H7          -0.4880    -0.0010     6.7870 ha         1 TC8       0.134000
     27 H8           1.7910    -0.0010     7.7150 ha         1 TC8       0.136000
     28 H9           3.7460    -0.0010     6.2230 ha         1 TC8       0.155000
     29 H17          6.4270     2.1150    -0.5130 ha         1 TC8       0.156000
     30 H18          7.3340    -0.0260    -1.3310 ha         1 TC8       0.148000
     31 H19          6.4090    -2.1560    -0.5080 ha         1 TC8       0.156000
@<TRIPOS>BOND
     1     1     2 1
     2     2     3 1
     3     3     4 2
     4     3    13 1
     5     4     5 1
     6     5     6 ar
     7     5    10 ar
     8     6     7 ar
     9     7     8 ar
    10     8     9 ar
    11     9    10 ar
    12    10    11 1
    13    11    12 2
    14    11    13 1
    15    13    14 1
    16    14    15 ar
    17    14    20 ar
    18    15    16 1
    19    15    17 ar
    20    17    18 ar
    21    18    19 ar
    22    19    20 ar
    23    20    21 1
    24     1    22 1
    25     1    23 1
    26     1    24 1
    27     6    25 1
    28     7    26 1
    29     8    27 1
    30     9    28 1
    31    17    29 1
    32    18    30 1
    33    19    31 1
@<TRIPOS>SUBSTRUCTURE
     1 TC8         1 TEMP              0 ****  ****    0 ROOT
