@<TRIPOS>MOLECULE
TC9
   87    93     1     0     0
SMALL
bcc


@<TRIPOS>ATOM
      1 N1          0.6660   -0.3070    0.1570 n4        1 TC9     -0.681400
      2 C2          2.0370   -0.9080    0.2140 c3        1 TC9      0.114800
      3 C3          2.4750   -1.3510    1.6030 c3        1 TC9     -0.058100
      4 C4          1.3750   -1.8470    2.4720 ca        1 TC9     -0.046300
      5 C5          0.0320   -1.7380    2.0910 ca        1 TC9     -0.165300
      6 C6         -0.3690   -1.2650    0.7250 c3        1 TC9      0.201800
      7 C7          1.7030   -2.3620    3.7310 ca        1 TC9     -0.193000
      8 C8          0.6950   -2.7140    4.6380 ca        1 TC9      0.156100
      9 C9         -0.6620   -2.5110    4.2820 ca        1 TC9      0.077100
     10 C10        -0.9820   -2.0520    3.0040 ca        1 TC9     -0.076000
     11 O11        -1.6960   -2.5300    5.2090 os        1 TC9     -0.216200
     12 C12        -2.0640   -3.7520    5.7640 ca        1 TC9      0.071100
     13 C13        -2.0690   -3.8350    7.1780 ca        1 TC9      0.164100
     14 C14        -2.6530   -4.9510    7.7960 ca        1 TC9     -0.200000
     15 C15        -3.2090   -5.9640    7.0210 ca        1 TC9     -0.095000
     16 C16        -3.1800   -5.8980    5.6230 ca        1 TC9     -0.159300
     17 C17        -2.6070   -4.7810    4.9970 ca        1 TC9     -0.116000
     18 C18        -3.8620   -6.9340    4.8000 c3        1 TC9     -0.054100
     19 C19        -2.8940   -7.7240    3.8960 c3        1 TC9      0.216800
     20 N20        -2.0650   -8.7490    4.6780 n4        1 TC9     -0.600800
     21 C21        -1.6240   -9.8720    3.7760 c3        1 TC9      0.117800
     22 C22        -2.7990  -10.6150    3.1600 c3        1 TC9     -0.055100
     23 C23        -3.6440   -9.6610    2.3960 ca        1 TC9     -0.081300
     24 C24        -3.6120   -8.2960    2.6970 ca        1 TC9     -0.136300
     25 C25        -4.3990  -10.1550    1.3230 ca        1 TC9     -0.153000
     26 C26        -5.0920   -9.2780    0.4960 ca        1 TC9      0.097100
     27 C27        -5.0020   -7.8770    0.7180 ca        1 TC9      0.135100
     28 C28        -4.2540   -7.4030    1.8080 ca        1 TC9      0.075100
     29 O29        -4.2810   -6.0360    2.0780 os        1 TC9     -0.245200
     30 C30        -3.3870   -5.2400    1.3690 ca        1 TC9      0.126100
     31 C31        -3.8180   -3.9240    1.1280 ca        1 TC9     -0.153000
     32 C32        -2.9200   -3.0150    0.5800 ca        1 TC9     -0.091500
     33 C33        -1.6070   -3.4010    0.2780 ca        1 TC9     -0.119300
     34 C34        -1.2170   -4.7330    0.4630 ca        1 TC9     -0.091500
     35 C35        -2.1040   -5.6610    1.0060 ca        1 TC9     -0.153000
     36 C36        -0.6290   -2.4210   -0.2650 c3        1 TC9     -0.042100
     37 O37         0.9270   -3.2700    5.8690 os        1 TC9     -0.306900
     38 C38         2.2630   -3.1790    6.3700 c3        1 TC9      0.106700
     39 O39        -1.5120   -2.7990    7.8710 oh        1 TC9     -0.457100
     40 O40        -5.8660   -9.6320   -0.5820 os        1 TC9     -0.329900
     41 C41        -6.0850  -11.0300   -0.7820 c3        1 TC9      0.113700
     42 O42        -5.5930   -6.9530   -0.0950 oh        1 TC9     -0.466100
     43 C43         0.6150    1.0060    0.8490 c3        1 TC9      0.084100
     44 C44        -2.8210   -9.3370    5.8240 c3        1 TC9      0.086600
     45 C45        -0.8400   -8.0810    5.2150 c3        1 TC9      0.086600
     46 H21C        2.7650   -0.1410   -0.1810 hx        1 TC9      0.103200
     47 H22C        2.0420   -1.7920   -0.4870 hx        1 TC9      0.103200
     48 H6         -1.3300   -0.6670    0.8140 hx        1 TC9      0.104700
     49 H431       -0.4040    1.4590    0.7150 hx        1 TC9      0.107367
     50 H432        0.8180    0.8570    1.9440 hx        1 TC9      0.107367
     51 H433        1.3910    1.6880    0.4090 hx        1 TC9      0.107367
     52 H31C        3.2550   -2.1530    1.4700 hc        1 TC9      0.095200
     53 H32C        2.9770   -0.4900    2.1290 hc        1 TC9      0.095200
     54 H7          2.7620   -2.4620    4.0130 ha        1 TC9      0.161000
     55 H10        -2.0440   -1.9190    2.7340 ha        1 TC9      0.166000
     56 H361        0.3330   -2.9510   -0.5020 hc        1 TC9      0.069200
     57 H362       -1.0340   -1.9960   -1.2250 hc        1 TC9      0.069200
     58 H17        -2.6270   -4.6920    3.8980 ha        1 TC9      0.149000
     59 H14        -2.6890   -5.0110    8.8950 ha        1 TC9      0.160000
     60 H39        -1.7080   -2.9210    8.8150 ho        1 TC9      0.437000
     61 H15        -3.7090   -6.8050    7.5270 ha        1 TC9      0.140000
     62 H181       -4.6020   -6.4080    4.1290 hc        1 TC9      0.100700
     63 H182       -4.4840   -7.6130    5.4400 hc        1 TC9      0.100700
     64 H19        -2.1390   -6.9800    3.4810 hx        1 TC9      0.097700
     65 H211       -0.9910   -9.4220    2.9590 hx        1 TC9      0.098700
     66 H212       -0.9890  -10.5790    4.3810 hx        1 TC9      0.098700
     67 H441       -2.9360   -8.5670    6.6340 hx        1 TC9      0.100700
     68 H442       -3.8310   -9.6800    5.4760 hx        1 TC9      0.100700
     69 H443       -2.2490  -10.2130    6.2340 hx        1 TC9      0.100700
     70 H451       -0.2710   -8.8090    5.8510 hx        1 TC9      0.100700
     71 H452       -0.1920   -7.7410    4.3640 hx        1 TC9      0.100700
     72 H453       -1.1460   -7.1930    5.8340 hx        1 TC9      0.100700
     73 H221       -2.3810  -11.4030    2.4740 hc        1 TC9      0.094200
     74 H222       -3.4040  -11.1520    3.9400 hc        1 TC9      0.094200
     75 H25        -4.4290  -11.2400    1.1360 ha        1 TC9      0.165000
     76 H42        -6.1280   -7.4210   -0.7600 ho        1 TC9      0.461000
     77 H31        -4.8510   -3.6330    1.3750 ha        1 TC9      0.159000
     78 H35        -1.8070   -6.7120    1.1300 ha        1 TC9      0.159000
     79 H32        -3.2540   -1.9850    0.3780 ha        1 TC9      0.141000
     80 H34        -0.2030   -5.0580    0.1820 ha        1 TC9      0.141000
     81 H381        2.6210   -2.1220    6.3580 h1        1 TC9      0.060367
     82 H382        2.9420   -3.8400    5.7780 h1        1 TC9      0.060367
     83 H383        2.1630   -3.5510    7.4220 h1        1 TC9      0.060367
     84 H411       -5.1230  -11.5400   -1.0310 h1        1 TC9      0.064367
     85 H412       -6.5590  -11.4860    0.1210 h1        1 TC9      0.064367
     86 H413       -6.7860  -11.0510   -1.6560 h1        1 TC9      0.064367
     87 H1          0.4350   -0.1590   -0.8350 hn        1 TC9      0.449800
@<TRIPOS>BOND
     1    1    2 1
     2    1    6 1
     3    1   43 1
     4    1   87 1
     5    2    3 1
     6    2   46 1
     7    2   47 1
     8    3    4 1
     9    3   52 1
    10    3   53 1
    11    4    5 ar
    12    4    7 ar
    13    5    6 1
    14    5   10 ar
    15    6   36 1
    16    6   48 1
    17    7    8 ar
    18    7   54 1
    19    8    9 ar
    20    8   37 1
    21    9   10 ar
    22    9   11 1
    23   10   55 1
    24   11   12 1
    25   12   13 ar
    26   12   17 ar
    27   13   14 ar
    28   13   39 1
    29   14   15 ar
    30   14   59 1
    31   15   16 ar
    32   15   61 1
    33   16   17 ar
    34   16   18 1
    35   17   58 1
    36   18   19 1
    37   18   62 1
    38   18   63 1
    39   19   20 1
    40   19   24 1
    41   19   64 1
    42   20   21 1
    43   20   44 1
    44   20   45 1
    45   21   22 1
    46   21   65 1
    47   21   66 1
    48   22   23 1
    49   22   73 1
    50   22   74 1
    51   23   24 ar
    52   23   25 ar
    53   24   28 ar
    54   25   26 ar
    55   25   75 1
    56   26   27 ar
    57   26   40 1
    58   27   28 ar
    59   27   42 1
    60   28   29 1
    61   29   30 1
    62   30   31 ar
    63   30   35 ar
    64   31   32 ar
    65   31   77 1
    66   32   33 ar
    67   32   79 1
    68   33   34 ar
    69   33   36 1
    70   34   35 ar
    71   34   80 1
    72   35   78 1
    73   36   56 1
    74   36   57 1
    75   37   38 1
    76   38   81 1
    77   38   82 1
    78   38   83 1
    79   39   60 1
    80   40   41 1
    81   41   84 1
    82   41   85 1
    83   41   86 1
    84   42   76 1
    85   43   49 1
    86   43   50 1
    87   43   51 1
    88   44   67 1
    89   44   68 1
    90   44   69 1
    91   45   70 1
    92   45   71 1
    93   45   72 1
@<TRIPOS>SUBSTRUCTURE
     1 TC9         1 TEMP              0 ****  ****    0 ROOT
