@<TRIPOS>MOLECULE
molecule
   18    18     1     0     0
SMALL
bcc


@<TRIPOS>ATOM
      1 C1           0.0000     0.0000     0.0000 c          1 TCA       0.864800
      2 O            1.2160     0.0000     0.0000 o          1 TCA      -0.839300
      3 OXT         -0.6740     0.0000     1.1690 o          1 TCA      -0.839300
      4 C2          -0.7320     0.0000    -1.2660 ce         1 TCA      -0.139200
      5 C3          -0.0580     0.0000    -2.4350 cf         1 TCA      -0.182200
      6 C31         -0.7940     0.0000    -3.7080 ca         1 TCA      -0.010800
      7 C32         -0.1000     0.0000    -4.9210 ca         1 TCA      -0.140000
      8 C33         -0.7970     0.0000    -6.1110 ca         1 TCA      -0.132500
      9 C34         -2.1800     0.0010    -6.1070 ca         1 TCA      -0.165000
     10 C35         -2.8750     0.0010    -4.9100 ca         1 TCA      -0.132500
     11 C36         -2.1930    -0.0040    -3.7120 ca         1 TCA      -0.140000
     12 H2          -1.8150     0.0000    -1.2650 ha         1 TCA       0.104000
     13 H3           1.0250     0.0000    -2.4360 ha         1 TCA       0.151000
     14 H32          0.9830    -0.0010    -4.9270 ha         1 TCA       0.135000
     15 H33         -0.2590     0.0000    -7.0510 ha         1 TCA       0.111500
     16 H34         -2.7220     0.0030    -7.0450 ha         1 TCA       0.108000
     17 H35         -3.9580    -0.0000    -4.9140 ha         1 TCA       0.111500
     18 H36         -2.7380    -0.0040    -2.7760 ha         1 TCA       0.135000
@<TRIPOS>BOND
     1     1     2 1
     2     1     3 1
     3     1     4 1
     4     4     5 2
     5     4    12 1
     6     5     6 1
     7     5    13 1
     8     6     7 ar
     9     6    11 ar
    10     7     8 ar
    11     7    14 1
    12     8     9 ar
    13     8    15 1
    14     9    10 ar
    15     9    16 1
    16    10    11 ar
    17    10    17 1
    18    11    18 1
@<TRIPOS>SUBSTRUCTURE
     1 TCA         1 TEMP              0 ****  ****    0 ROOT
