@<TRIPOS>MOLECULE
TCC
   25    26     1     0     0
SMALL
bcc


@<TRIPOS>ATOM
      1 C12          0.0000     0.0000     0.0000 ca         1 TCC      -0.073000
      2 C11          1.3830     0.0000     0.0000 ca         1 TCC      -0.051600
      3 Cl2          2.2510     0.0010    -1.5040 cl         1 TCC      -0.020400
      4 C10          2.0770     0.0000     1.1960 ca         1 TCC      -0.072000
      5 C9           1.3900     0.0050     2.3960 ca         1 TCC      -0.067600
      6 Cl1          2.2610     0.0050     3.8970 cl         1 TCC      -0.013400
      7 C8          -0.0000    -0.0010     2.3980 ca         1 TCC       0.021600
      8 N1          -0.6980    -0.0020     3.6080 nu         1 TCC      -0.220000
      9 C4          -1.7980     0.8430     3.7820 ca         1 TCC       0.015600
     10 C5          -2.1090     1.7880     2.8150 ca         1 TCC      -0.172000
     11 C6          -3.1960     2.6230     2.9890 ca         1 TCC      -0.075000
     12 C1          -3.9810     2.5150     4.1230 ca         1 TCC      -0.124000
     13 C2          -3.6810     1.5710     5.0880 ca         1 TCC      -0.119000
     14 C3          -2.5930     0.7320     4.9200 ca         1 TCC       0.065100
     15 O1          -2.2980    -0.1960     5.8690 oh         1 TCC      -0.495100
     16 C7          -0.6930    -0.0010     1.1950 ca         1 TCC      -0.128000
     17 H12C        -0.5410     0.0000    -0.9390 ha         1 TCC       0.116000
     18 H10C         3.1610    -0.0000     1.1940 ha         1 TCC       0.125000
     19 HN1         -0.4280    -0.6290     4.3410 hn         1 TCC       0.303800
     20 HC5         -1.4970     1.8750     1.9250 ha         1 TCC       0.132000
     21 HC6         -3.4370     3.3620     2.2340 ha         1 TCC       0.102000
     22 HC1         -4.8320     3.1720     4.2550 ha         1 TCC       0.105000
     23 HC2         -4.2990     1.4880     5.9740 ha         1 TCC       0.109000
     24 HO1         -2.1560     0.2340     6.6960 ho         1 TCC       0.402000
     25 HC7         -1.7760    -0.0030     1.1930 ha         1 TCC       0.132000
@<TRIPOS>BOND
     1     1     2 ar  
     2     1    16 ar  
     3     1    17 1   
     4     2     3 1   
     5     2     4 ar  
     6     4     5 ar  
     7     4    18 1   
     8     5     6 1   
     9     5     7 ar  
    10     7     8 1   
    11     7    16 ar  
    12     8     9 1   
    13     8    19 1   
    14     9    10 ar  
    15     9    14 ar  
    16    10    11 ar  
    17    10    20 1   
    18    11    12 ar  
    19    11    21 1   
    20    12    13 ar  
    21    12    22 1   
    22    13    14 ar  
    23    13    23 1   
    24    14    15 1   
    25    15    24 1   
    26    16    25 1   
@<TRIPOS>SUBSTRUCTURE
     1 TCC         1 TEMP              0 ****  ****    0 ROOT
