@<TRIPOS>MOLECULE
molecule
   32    34     1     0     0
SMALL
bcc


@<TRIPOS>ATOM
      1 C1           0.0000     0.0000     0.0000 ca         1 TCD       0.094600
      2 O21         -0.6800     0.0010    -1.1780 os         1 TCD      -0.316400
      3 C2           1.3870     0.0000     0.0000 ca         1 TCD      -0.110250
      4 C3           2.0760     0.0000     1.1950 ca         1 TCD      -0.110250
      5 C4           1.3830     0.0010     2.3970 ca         1 TCD       0.094600
      6 O31          2.0630     0.0010     3.5740 os         1 TCD      -0.316400
      7 C5          -0.0030    -0.0040     2.3970 ca         1 TCD      -0.110250
      8 C6          -0.6930    -0.0010     1.2010 ca         1 TCD      -0.110250
      9 C22         -0.7840     1.2950    -1.5700 ca         1 TCD       0.641600
     10 N23         -0.3500     2.2570    -0.7740 nb         1 TCD      -0.721000
     11 C24         -0.4320     3.5290    -1.1160 ca         1 TCD       0.468200
     12 C25         -0.9770     3.9030    -2.3290 ca         1 TCD      -0.127900
     13 Cl25        -1.0770     5.5800    -2.7680 cl         1 TCD      -0.086400
     14 C26         -1.4450     2.9220    -3.1950 ca         1 TCD      -0.056500
     15 C27         -1.3400     1.5970    -2.8080 ca         1 TCD      -0.106900
     16 Cl27        -1.9070     0.3290    -3.8500 cl         1 TCD      -0.068900
     17 C32          2.1670     1.2960     3.9670 ca         1 TCD       0.641600
     18 N33          1.7400     2.2580     3.1680 nb         1 TCD      -0.721000
     19 C34          1.8220     3.5300     3.5100 ca         1 TCD       0.468200
     20 C35          2.3630     3.9020     4.7250 ca         1 TCD      -0.127900
     21 Cl35         2.4640     5.5790     5.1640 cl         1 TCD      -0.086400
     22 C36          2.8280     2.9220     5.5910 ca         1 TCD      -0.056500
     23 C37          2.7220     1.5970     5.2060 ca         1 TCD      -0.106900
     24 Cl37         3.2820     0.3290     6.2500 cl         1 TCD      -0.068900
     25 H2           1.9290    -0.0010    -0.9380 ha         1 TCD       0.145000
     26 H3           3.1600    -0.0000     1.1950 ha         1 TCD       0.145000
     27 H5          -0.5450    -0.0040     3.3350 ha         1 TCD       0.145000
     28 H6          -1.7770    -0.0050     1.2010 ha         1 TCD       0.145000
     29 H24         -0.0650     4.2890    -0.4370 h4         1 TCD       0.042100
     30 H26         -1.8760     3.1870    -4.1530 ha         1 TCD       0.169000
     31 H34          1.4620     4.2920     2.8290 h4         1 TCD       0.042100
     32 H36          3.2560     3.1880     6.5510 ha         1 TCD       0.169000
@<TRIPOS>BOND
     1     1     2 1
     2     1     3 ar
     3     1     8 ar
     4     2     9 1
     5     3     4 ar
     6     3    25 1
     7     4     5 ar
     8     4    26 1
     9     5     6 1
    10     5     7 ar
    11     6    17 1
    12     7     8 ar
    13     7    27 1
    14     8    28 1
    15     9    10 ar
    16     9    15 ar
    17    10    11 ar
    18    11    12 ar
    19    11    29 1
    20    12    13 1
    21    12    14 ar
    22    14    15 ar
    23    14    30 1
    24    15    16 1
    25    17    18 ar
    26    17    23 ar
    27    18    19 ar
    28    19    20 ar
    29    19    31 1
    30    20    21 1
    31    20    22 ar
    32    22    23 ar
    33    22    32 1
    34    23    24 1
@<TRIPOS>SUBSTRUCTURE
     1 TCD         1 TEMP              0 ****  ****    0 ROOT
