@<TRIPOS>MOLECULE
TCE
   28    27     1     0     0
SMALL
bcc


@<TRIPOS>ATOM
      1 O16         0.6460   -0.0020    0.0640 o         1 TCE     -0.881800
      2 C14         1.6870    0.5350   -0.4220 c         1 TCE      0.904600
      3 O15         2.3850    1.3610    0.2490 o         1 TCE     -0.881800
      4 C5          2.1600    0.1660   -1.8310 c3        1 TCE     -0.171400
      5 C2          1.0650    0.0210   -2.8400 c3        1 TCE      0.083500
      6 P           1.8670   -0.4250   -4.3280 p3        1 TCE     -0.581700
      7 C3          1.8400   -2.1720   -4.2930 c3        1 TCE      0.083500
      8 C6          2.9050   -2.6020   -5.2510 c3        1 TCE     -0.171400
      9 C8          3.0510   -4.1190   -5.4070 c         1 TCE      0.904600
     10 O10         2.0220   -4.8580   -5.4620 o         1 TCE     -0.881800
     11 O9          4.2230   -4.6010   -5.5160 o         1 TCE     -0.881800
     12 C1          0.6900   -0.0280   -5.5560 c3        1 TCE      0.083500
     13 C4          1.0100    1.3740   -5.9700 c3        1 TCE     -0.171400
     14 C11         0.0780    1.9550   -7.0390 c         1 TCE      0.904600
     15 O12         0.5890    2.6810   -7.9490 o         1 TCE     -0.881800
     16 O13        -1.1700    1.7380   -6.9840 o         1 TCE     -0.881800
     17 H5          2.7150   -0.8060   -1.7630 hc        1 TCE      0.029700
     18 H5A         2.8860    0.9390   -2.1910 hc        1 TCE      0.029700
     19 H2          0.3260   -0.7510   -2.5320 hc        1 TCE      0.041200
     20 H2A         0.5320    0.9830   -3.0130 hc        1 TCE      0.041200
     21 H3          2.0640   -2.4980   -3.2520 hc        1 TCE      0.041200
     22 H3A         0.8420   -2.5670   -4.5870 hc        1 TCE      0.041200
     23 H6          2.6710   -2.1740   -6.2610 hc        1 TCE      0.029700
     24 H6A         3.8850   -2.1680   -4.9250 hc        1 TCE      0.029700
     25 H1         -0.3480   -0.1100   -5.1640 hc        1 TCE      0.041200
     26 H1A         0.8150   -0.7460   -6.3970 hc        1 TCE      0.041200
     27 H4          0.9510    2.0360   -5.0670 hc        1 TCE      0.029700
     28 H4A         2.0660    1.4110   -6.3410 hc        1 TCE      0.029700
@<TRIPOS>BOND
     1    1    2 1   
     2    2    3 1   
     3    2    4 1   
     4    4    5 1   
     5    4   17 1   
     6    4   18 1   
     7    5    6 1   
     8    5   19 1   
     9    5   20 1   
    10    6    7 1   
    11    6   12 1   
    12    7    8 1   
    13    7   21 1   
    14    7   22 1   
    15    8    9 1   
    16    8   23 1   
    17    8   24 1   
    18    9   10 1   
    19    9   11 1   
    20   12   13 1   
    21   12   25 1   
    22   12   26 1   
    23   13   14 1   
    24   13   27 1   
    25   13   28 1   
    26   14   15 1   
    27   14   16 1   
@<TRIPOS>SUBSTRUCTURE
     1 TCE         1 TEMP              0 ****  ****    0 ROOT
