@<TRIPOS>MOLECULE
molecule
   28    27     1     0     0
SMALL
bcc


@<TRIPOS>ATOM
      1 O16          0.0000     0.0000     0.0000 o          1 TCE      -0.882133
      2 C14          1.2090     0.0000     0.0000 c          1 TCE       0.895267
      3 O15          1.8800     0.0000     1.1630 o          1 TCE      -0.882133
      4 C5           1.9620    -0.0070    -1.3050 c3         1 TCE      -0.174067
      5 C2           0.9680    -0.0130    -2.4680 c3         1 TCE       0.133833
      6 P            1.8790    -0.0200    -4.0470 p3         1 TCE      -0.736700
      7 C3           2.0730    -1.8060    -4.3630 c3         1 TCE       0.133833
      8 C6           3.1320    -2.0190    -5.4470 c3         1 TCE      -0.174067
      9 C8           3.2920    -3.4940    -5.7080 c          1 TCE       0.895267
     10 O10          2.6280    -4.2940    -5.0900 o          1 TCE      -0.882133
     11 O9           4.1730    -3.9220    -6.6260 o          1 TCE      -0.882133
     12 C1           0.5760     0.4350    -5.2380 c3         1 TCE       0.133833
     13 C4           1.2200     0.8430    -6.5650 c3         1 TCE      -0.174067
     14 C11          0.1430     1.2200    -7.5500 c          1 TCE       0.895267
     15 O12          0.4760     1.6140    -8.7890 o          1 TCE      -0.882133
     16 O13         -1.0180     1.1680    -7.2240 o          1 TCE      -0.882133
     17 H5           2.5860     0.8770    -1.3670 hc         1 TCE       0.037700
     18 H5A          2.5850    -0.8920    -1.3570 hc         1 TCE       0.037700
     19 H2           0.3450     0.8720    -2.4140 hc         1 TCE       0.040367
     20 H2A          0.3450    -0.8970    -2.4060 hc         1 TCE       0.040367
     21 H3           1.1280    -2.2190    -4.6940 hc         1 TCE       0.040367
     22 H3A          2.3850    -2.3020    -3.4510 hc         1 TCE       0.040367
     23 H6           2.8200    -1.5230    -6.3580 hc         1 TCE       0.037700
     24 H6A          4.0770    -1.6060    -5.1160 hc         1 TCE       0.037700
     25 H1          -0.0780    -0.4130    -5.4000 hc         1 TCE       0.040367
     26 H1A          0.0010     1.2650    -4.8450 hc         1 TCE       0.040367
     27 H4           1.8740     1.6910    -6.4040 hc         1 TCE       0.037700
     28 H4A          1.7950     0.0130    -6.9580 hc         1 TCE       0.037700
@<TRIPOS>BOND
     1     1     2 1
     2     2     3 1
     3     2     4 1
     4     5     4 1
     5     4    17 1
     6     4    18 1
     7     5     6 1
     8     5    19 1
     9     5    20 1
    10    12     6 1
    11     6     7 1
    12     7     8 1
    13     7    21 1
    14     7    22 1
    15     8     9 1
    16     8    23 1
    17     8    24 1
    18    10     9 1
    19     9    11 1
    20    13    12 1
    21    12    25 1
    22    12    26 1
    23    14    13 1
    24    13    27 1
    25    13    28 1
    26    16    14 1
    27    15    14 1
@<TRIPOS>SUBSTRUCTURE
     1 TCE         1 TEMP              0 ****  ****    0 ROOT
