@<TRIPOS>MOLECULE
molecule
   23    23     1     0     0
SMALL
bcc


@<TRIPOS>ATOM
      1 C1B          0.0000     0.0000     0.0000 c          1 TCF       0.473100
      2 O1B          1.2130     0.0000     0.0000 o          1 TCF      -0.388100
      3 C2B         -0.7540     0.0000     1.3050 c3         1 TCF      -0.157400
      4 C3B          0.2410     0.0000     2.4680 c3         1 TCF      -0.017100
      5 CB1         -0.5140     0.0000     3.7730 ca         1 TCF      -0.115300
      6 CB2         -0.8600    -1.1970     4.3710 ca         1 TCF      -0.118000
      7 CB3         -1.5520    -1.1970     5.5680 ca         1 TCF      -0.093000
      8 CB6         -0.8540     1.1980     4.3740 ca         1 TCF      -0.118000
      9 CB5         -1.5450     1.1980     5.5710 ca         1 TCF      -0.093000
     10 CB4         -1.8970     0.0010     6.1670 ca         1 TCF      -0.004900
     11 Br          -2.8440     0.0000     7.8040 br         1 TCF      -0.053100
     12 NXT         -0.6720     0.0060    -1.1680 nz         1 TCF      -0.686400
     13 H2B1        -1.3770     0.8850     1.3620 hc         1 TCF       0.097700
     14 H2B2        -1.3770    -0.8850     1.3620 hc         1 TCF       0.097700
     15 HXT1        -0.0210    -0.0070    -1.9280 hn         1 TCF       0.478467
     16 HXT2        -1.2610    -0.8020    -1.2180 hn         1 TCF       0.478467
     17 H3B1         0.8630     0.8850     2.4100 hc         1 TCF       0.075700
     18 H3B2         0.8630    -0.8840     2.4100 hc         1 TCF       0.075700
     19 HB2         -0.5890    -2.1350     3.9010 ha         1 TCF       0.135000
     20 HB6         -0.5790     2.1360     3.9080 ha         1 TCF       0.135000
     21 HB3         -1.8250    -2.1350     6.0360 ha         1 TCF       0.159000
     22 HB5         -1.8140     2.1360     6.0410 ha         1 TCF       0.159000
     23 HXT3        -1.2220     0.8400    -1.2320 hn         1 TCF       0.478467
@<TRIPOS>BOND
     1     1     2 2
     2     1     3 1
     3     1    12 1
     4     3     4 1
     5     4     5 1
     6     5     6 ar
     7     5     8 ar
     8     6     7 ar
     9     7    10 ar
    10     8     9 ar
    11     9    10 ar
    12    10    11 1
    13     3    13 1
    14     3    14 1
    15    12    15 1
    16    12    16 1
    17     4    17 1
    18     4    18 1
    19     6    19 1
    20     8    20 1
    21     7    21 1
    22     9    22 1
    23    23    12 1
@<TRIPOS>SUBSTRUCTURE
     1 TCF         1 TEMP              0 ****  ****    0 ROOT
