@<TRIPOS>MOLECULE
TCI
   53    55     1     0     0
SMALL
bcc


@<TRIPOS>ATOM
      1 C1         -0.1170   -0.0040    0.0070 ca        1 TCI     -0.190000
      2 O1         -2.1190   -0.1420    1.2010 os        1 TCI     -0.329900
      3 C2          1.2660    0.1460   -0.0700 ca        1 TCI     -0.011300
      4 C3          2.0080    0.3210    1.1010 ca        1 TCI     -0.250000
      5 C4          1.3670    0.3110    2.3470 ca        1 TCI      0.161100
      6 C5         -0.0210    0.0970    2.4660 ca        1 TCI     -0.165300
      7 C6         -0.7480   -0.0090    1.2650 ca        1 TCI      0.166100
      8 C7         -0.7350    0.0500    3.7750 c3        1 TCI      0.037800
      9 C8         -0.0640   -0.7440    4.8460 c2        1 TCI     -0.148200
     10 C9         -0.7490   -1.3020    5.8570 c2        1 TCI     -0.134400
     11 C10        -2.2340   -1.2530    5.9670 c3        1 TCI     -0.039200
     12 C11        -2.8970   -0.3890    4.9090 c3        1 TCI     -0.067400
     13 C12        -2.1540   -0.5050    3.5910 c3        1 TCI     -0.087700
     14 C13        -2.8570    0.1660    2.4120 c3        1 TCI      0.159800
     15 C14        -4.2330   -0.4420    2.1580 c3        1 TCI     -0.102600
     16 C15        -2.9690    1.6770    2.5500 c3        1 TCI     -0.102600
     17 C16        -0.0700   -2.0430    6.9480 c3        1 TCI     -0.054900
     18 C17         1.9540    0.1300   -1.3910 c3        1 TCI     -0.040100
     19 C18         2.4210    1.5140   -1.7990 c3        1 TCI     -0.075400
     20 C19         3.1490    1.4730   -3.1260 c3        1 TCI     -0.080400
     21 C20         3.6150    2.8530   -3.5390 c3        1 TCI     -0.080400
     22 C21         4.3410    2.8190   -4.8590 c3        1 TCI     -0.093100
     23 H1         -0.7290   -0.1170   -0.8980 ha        1 TCI      0.150000
     24 HO2         3.0120    0.6570    3.2580 ho        1 TCI      0.419000
     25 H3          3.0960    0.4700    1.0440 ha        1 TCI      0.133000
     26 H7         -0.8030    1.1160    4.1530 hc        1 TCI      0.068700
     27 H8          1.0320   -0.8250    4.7900 ha        1 TCI      0.147000
     28 H10        -2.6250   -2.3040    5.8860 hc        1 TCI      0.046700
     29 H10A       -2.5190   -0.8740    6.9850 hc        1 TCI      0.046700
     30 H11        -2.9090    0.6810    5.2450 hc        1 TCI      0.043200
     31 H11A       -3.9630   -0.7130    4.7790 hc        1 TCI      0.043200
     32 H12        -2.0660   -1.6000    3.3310 hc        1 TCI      0.072700
     33 H14        -4.1880   -1.5540    2.2330 hc        1 TCI      0.048700
     34 H14A       -4.9580   -0.0480    2.9080 hc        1 TCI      0.048700
     35 H14B       -4.5820   -0.1690    1.1330 hc        1 TCI      0.048700
     36 H15        -1.9550    2.1450    2.5470 hc        1 TCI      0.048700
     37 H15A       -3.5510    2.0930    1.6930 hc        1 TCI      0.048700
     38 H15B       -3.4880    1.9340    3.5030 hc        1 TCI      0.048700
     39 H16        -0.2580   -1.5380    7.9290 hc        1 TCI      0.039033
     40 H16A        1.0340   -2.0940    6.7840 hc        1 TCI      0.039033
     41 H16B       -0.4670   -3.0870    7.0110 hc        1 TCI      0.039033
     42 H17         1.2630   -0.2760   -2.1780 hc        1 TCI      0.050700
     43 H17A        2.8380   -0.5610   -1.3370 hc        1 TCI      0.050700
     44 H18         1.5380    2.2020   -1.8740 hc        1 TCI      0.044700
     45 H18A        3.0990    1.9290   -1.0070 hc        1 TCI      0.044700
     46 H19         4.0320    0.7860   -3.0500 hc        1 TCI      0.039700
     47 H19A        2.4700    1.0540   -3.9150 hc        1 TCI      0.039700
     48 H20         2.7300    3.5390   -3.6140 hc        1 TCI      0.039200
     49 H20A        4.2910    3.2720   -2.7470 hc        1 TCI      0.039200
     50 H21         5.2410    2.1590   -4.7970 hc        1 TCI      0.032700
     51 H21A        4.6760    3.8450   -5.1450 hc        1 TCI      0.032700
     52 H21B        3.6760    2.4270   -5.6650 hc        1 TCI      0.032700
     53 O2          2.0830    0.5360    3.5030 oh        1 TCI     -0.500100
@<TRIPOS>BOND
     1    1    3 ar  
     2    1    7 ar  
     3    1   23 1   
     4    2    7 1   
     5    2   14 1   
     6    3    4 ar  
     7    3   18 1   
     8    4    5 ar  
     9    4   25 1   
    10    5    6 ar  
    11    5   53 1   
    12    6    7 ar  
    13    6    8 1   
    14    8    9 1   
    15    8   13 1   
    16    8   26 1   
    17    9   10 2   
    18    9   27 1   
    19   10   11 1   
    20   10   17 1   
    21   11   12 1   
    22   11   28 1   
    23   11   29 1   
    24   12   13 1   
    25   12   30 1   
    26   12   31 1   
    27   13   14 1   
    28   13   32 1   
    29   14   15 1   
    30   14   16 1   
    31   15   33 1   
    32   15   34 1   
    33   15   35 1   
    34   16   36 1   
    35   16   37 1   
    36   16   38 1   
    37   17   39 1   
    38   17   40 1   
    39   17   41 1   
    40   18   19 1   
    41   18   42 1   
    42   18   43 1   
    43   19   20 1   
    44   19   44 1   
    45   19   45 1   
    46   20   21 1   
    47   20   46 1   
    48   20   47 1   
    49   21   22 1   
    50   21   48 1   
    51   21   49 1   
    52   22   50 1   
    53   22   51 1   
    54   22   52 1   
    55   24   53 1   
@<TRIPOS>SUBSTRUCTURE
     1 TCI         1 TEMP              0 ****  ****    0 ROOT
