@<TRIPOS>MOLECULE
molecule
   53    55     1     0     0
SMALL
bcc


@<TRIPOS>ATOM
      1 C1           0.0000     0.0000     0.0000 ca         1 TCI      -0.184000
      2 O1          -2.0630    -0.0110     1.1500 os         1 TCI      -0.325900
      3 C2           1.3800     0.0000     0.0000 ca         1 TCI      -0.022300
      4 C3           2.0740     0.0000     1.1940 ca         1 TCI      -0.235000
      5 C4           1.3800     0.0060     2.3950 ca         1 TCI       0.162100
      6 C5          -0.0070     0.0140     2.3990 ca         1 TCI      -0.179300
      7 C6          -0.7060     0.0040     1.2000 ca         1 TCI       0.182100
      8 C7          -0.7540     0.0500     3.6960 c3         1 TCI       0.027800
      9 C8          -0.0800    -0.6760     4.8120 c2         1 TCI      -0.157200
     10 C9          -0.7580    -1.2870     5.7400 c2         1 TCI      -0.140400
     11 C10         -2.2540    -1.3690     5.8040 c3         1 TCI      -0.034200
     12 C11         -2.9130    -0.4170     4.8000 c3         1 TCI      -0.072400
     13 C12         -2.1540    -0.5350     3.4810 c3         1 TCI      -0.098700
     14 C13         -2.8130     0.2410     2.3450 c3         1 TCI       0.159800
     15 C14         -4.2560    -0.2350     2.1590 c3         1 TCI      -0.097100
     16 C15         -2.7960     1.7380     2.6610 c3         1 TCI      -0.097100
     17 C16          0.0210    -1.9680     6.8370 c3         1 TCI      -0.053900
     18 C17          2.1310    -0.0020    -1.3070 c3         1 TCI      -0.036100
     19 C18          2.3860     1.4410    -1.7510 c3         1 TCI      -0.077400
     20 C19          3.1480     1.4390    -3.0760 c3         1 TCI      -0.083400
     21 C20          3.4030     2.8810    -3.5200 c3         1 TCI      -0.083400
     22 C21          4.1660     2.8790    -4.8470 c3         1 TCI      -0.092100
     23 H1          -0.5380    -0.0000    -0.9400 ha         1 TCI       0.145000
     24 HO2          2.8130     0.5700     3.4990 ho         1 TCI       0.415000
     25 H3           3.1580    -0.0000     1.1920 ha         1 TCI       0.134000
     26 H7          -0.8640     1.0870     3.9900 hc         1 TCI       0.064700
     27 H8           1.0020    -0.6960     4.8520 ha         1 TCI       0.163000
     28 H10         -2.5610    -2.3840     5.5820 hc         1 TCI       0.048200
     29 H10A        -2.5790    -1.1070     6.8040 hc         1 TCI       0.048200
     30 H11         -3.9490    -0.7000     4.6520 hc         1 TCI       0.045700
     31 H11A        -2.8540     0.6000     5.1670 hc         1 TCI       0.045700
     32 H12         -2.0710    -1.5790     3.2050 hc         1 TCI       0.076700
     33 H14         -4.6260     0.1020     1.1990 hc         1 TCI       0.047533
     34 H14A        -4.8750     0.1740     2.9490 hc         1 TCI       0.047533
     35 H14B        -4.2870    -1.3170     2.1990 hc         1 TCI       0.047533
     36 H15         -3.1450     1.8960     3.6750 hc         1 TCI       0.047533
     37 H15A        -1.7860     2.1160     2.5630 hc         1 TCI       0.047533
     38 H15B        -3.4460     2.2600     1.9700 hc         1 TCI       0.047533
     39 H16          0.5590    -1.2250     7.4120 hc         1 TCI       0.038700
     40 H16A        -0.6620    -2.5030     7.4860 hc         1 TCI       0.038700
     41 H16B         0.7250    -2.6660     6.4000 hc         1 TCI       0.038700
     42 H17          3.0770    -0.5130    -1.1790 hc         1 TCI       0.050700
     43 H17A         1.5440    -0.5130    -2.0610 hc         1 TCI       0.050700
     44 H18          2.9730     1.9520    -0.9970 hc         1 TCI       0.045700
     45 H18A         1.4390     1.9520    -1.8790 hc         1 TCI       0.045700
     46 H19          4.0950     0.9280    -2.9480 hc         1 TCI       0.041200
     47 H19A         2.5610     0.9280    -3.8300 hc         1 TCI       0.041200
     48 H20          3.9900     3.3920    -2.7670 hc         1 TCI       0.040700
     49 H20A         2.4560     3.3910    -3.6490 hc         1 TCI       0.040700
     50 H21          4.3460     3.9000    -5.1610 hc         1 TCI       0.033033
     51 H21A         5.1130     2.3680    -4.7180 hc         1 TCI       0.033033
     52 H21B         3.5790     2.3680    -5.6000 hc         1 TCI       0.033033
     53 O2           2.0610     0.0050     3.5710 oh         1 TCI      -0.505100
@<TRIPOS>BOND
     1     1     3 ar
     2     1     7 ar
     3     2     7 1
     4     2    14 1
     5     3     4 ar
     6     3    18 1
     7    53     5 1
     8     4     5 ar
     9     5     6 ar
    10     6     7 ar
    11     6     8 1
    12     8     9 1
    13     8    13 1
    14     9    10 2
    15    10    11 1
    16    10    17 1
    17    11    12 1
    18    12    13 1
    19    13    14 1
    20    14    15 1
    21    14    16 1
    22    18    19 1
    23    19    20 1
    24    20    21 1
    25    21    22 1
    26     1    23 1
    27    53    24 1
    28     4    25 1
    29     8    26 1
    30     9    27 1
    31    11    28 1
    32    11    29 1
    33    12    30 1
    34    12    31 1
    35    13    32 1
    36    15    33 1
    37    15    34 1
    38    15    35 1
    39    16    36 1
    40    16    37 1
    41    16    38 1
    42    17    39 1
    43    17    40 1
    44    17    41 1
    45    18    42 1
    46    18    43 1
    47    19    44 1
    48    19    45 1
    49    20    46 1
    50    20    47 1
    51    21    48 1
    52    21    49 1
    53    22    50 1
    54    22    51 1
    55    22    52 1
@<TRIPOS>SUBSTRUCTURE
     1 TCI         1 TEMP              0 ****  ****    0 ROOT
