@<TRIPOS>MOLECULE
TCL
   24    24     1     0     0
SMALL
bcc


@<TRIPOS>ATOM
      1 C1         -0.1260   -0.7400    0.0580 c2        1 TCL     -0.019000
      2 C2          1.1670   -0.4120   -0.2450 c2        1 TCL     -0.148000
      3 C6         -0.6610   -0.3750    1.3520 c2        1 TCL      0.038000
      4 C5          0.1200    0.2790    2.2650 c2        1 TCL     -0.069000
      5 C4          1.5200    0.6530    1.9620 c3        1 TCL     -0.192000
      6 C3          2.0290    0.2880    0.6510 c1        1 TCL     -0.051000
      7 C11        -1.7710    3.9810    6.4000 c1        1 TCL     -0.145000
      8 C10        -1.7440    2.9700    5.7610 c1        1 TCL     -0.163000
      9 C9         -1.7220    1.7460    5.0220 c3        1 TCL      0.125000
     10 C8         -0.8120    1.7910    3.8290 c2        1 TCL      0.055000
     11 C12        -0.1260    3.9420    2.5320 c2        1 TCL     -0.101000
     12 C13        -0.4480    2.8630    3.1730 c1        1 TCL     -0.220000
     13 O7         -0.3690    0.4900    3.5490 os        1 TCL     -0.172000
     14 CL14        1.8070   -0.8380   -1.7600 cl        1 TCL      0.012000
     15 CL16       -3.3670    1.3390    4.4710 cl        1 TCL     -0.098000
     16 O17        -1.9620   -0.7550    1.5630 oh        1 TCL     -0.241000
     17 H11        -0.8000   -1.2720   -0.6330 ha        1 TCL      0.169000
     18 H41         1.6490    1.7730    2.0770 hc        1 TCL      0.179000
     19 H31         2.2130    0.1880    2.7290 hc        1 TCL      0.179000
     20 H101       -1.4210    0.8880    5.6910 h1        1 TCL      0.156000
     21 H121       -0.7200    4.3220    1.6850 ha        1 TCL      0.139500
     22 H131        0.7590    4.5410    2.7970 ha        1 TCL      0.139500
     23 H171       -2.2310   -0.4280    2.4390 ho        1 TCL      0.241000
     24 CL15       -1.8030    5.3240    7.2560 cl        1 TCL      0.185000
@<TRIPOS>BOND
     1    1    2 1   
     2    1    3 1   
     3    1   17 1   
     4    2    6 1   
     5    2   14 1   
     6    3    4 1   
     7    3   16 1   
     8    4    5 1   
     9    4   13 1   
    10    5    6 1   
    11    5   18 1   
    12    5   19 1   
    13    7    8 1   
    14    7   24 1   
    15    8    9 1   
    16    9   10 1   
    17    9   15 1   
    18    9   20 1   
    19   10   12 1   
    20   10   13 1   
    21   11   12 1   
    22   11   21 1   
    23   11   22 1   
    24   16   23 1   
@<TRIPOS>SUBSTRUCTURE
     1 TCL         1 TEMP              0 ****  ****    0 ROOT
