@<TRIPOS>MOLECULE
molecule
   24    25     1     0     0
SMALL
bcc


@<TRIPOS>ATOM
      1 C1           0.0000     0.0000     0.0000 ca         1 TCL      -0.168000
      2 C2           1.3820     0.0000     0.0000 ca         1 TCL       0.047400
      3 C6          -0.6930    -0.0000     1.2000 ca         1 TCL       0.112100
      4 C5           0.0050     0.0030     2.4030 ca         1 TCL       0.056100
      5 C4           1.3920    -0.0010     2.3960 ca         1 TCL      -0.108000
      6 C3           2.0760     0.0000     1.1960 ca         1 TCL      -0.129000
      7 C11         -1.4340     3.9460     4.5220 ca         1 TCL       0.004400
      8 C10         -1.7390     2.9500     5.4310 ca         1 TCL      -0.088000
      9 C9          -1.4890     1.6280     5.1170 ca         1 TCL       0.009400
     10 C8          -0.9220     1.3020     3.8920 ca         1 TCL       0.126100
     11 C12         -0.8720     3.6230     3.2990 ca         1 TCL      -0.084000
     12 C13         -0.6160     2.3030     2.9830 ca         1 TCL      -0.184000
     13 O7          -0.6700     0.0030     3.5830 os         1 TCL      -0.192200
     14 Cl14         2.2490     0.0010    -1.5050 cl         1 TCL      -0.093400
     15 Cl16        -1.8720     0.3760     6.2570 cl         1 TCL      -0.083400
     16 O17         -2.0520     0.0000     1.2020 oh         1 TCL      -0.499100
     17 H11         -0.5420    -0.0010    -0.9380 ha         1 TCL       0.159000
     18 H41          1.9380     0.0000     3.3310 ha         1 TCL       0.159000
     19 H31          3.1600    -0.0020     1.1920 ha         1 TCL       0.154000
     20 H101        -2.1800     3.2050     6.3870 ha         1 TCL       0.161000
     21 H121        -0.6340     4.4060     2.5890 ha         1 TCL       0.150000
     22 H131        -0.1750     2.0510     2.0260 ha         1 TCL       0.161000
     23 H171        -2.3680    -0.8020     0.8210 ho         1 TCL       0.430000
     24 Cl15        -1.7540     5.6070     4.9160 cl         1 TCL      -0.101400
@<TRIPOS>BOND
     1     1     2 ar
     2     1     3 ar
     3     1    17 1
     4     2     6 ar
     5     2    14 1
     6     3     4 ar
     7     3    16 1
     8     4     5 ar
     9     4    13 1
    10     5     6 ar
    11     5    18 1
    12     6    19 1
    13     7     8 ar
    14     7    11 ar
    15     7    24 1
    16     8     9 ar
    17     8    20 1
    18     9    10 ar
    19     9    15 1
    20    10    12 ar
    21    10    13 1
    22    11    12 ar
    23    11    21 1
    24    12    22 1
    25    16    23 1
@<TRIPOS>SUBSTRUCTURE
     1 TCL         1 TEMP              0 ****  ****    0 ROOT
