@<TRIPOS>MOLECULE
molecule
   27    28     1     0     0
SMALL
bcc


@<TRIPOS>ATOM
      1 C1           0.0000     0.0000     0.0000 c3         1 TCM      -0.118000
      2 C2           1.5340     0.0000     0.0000 cs         1 TCM       0.295400
      3 C3           1.9280     0.0000     1.4820 c3         1 TCM      -0.131400
      4 C4           0.5760     0.0280     2.2570 c3         1 TCM      -0.076700
      5 C5          -0.0100     1.4500     1.9980 c3         1 TCM      -0.084400
      6 C6          -0.3970     1.4410     0.5010 c3         1 TCM      -0.069400
      7 C7          -0.3160    -0.8320     1.2930 c3         1 TCM      -0.065000
      8 C8           0.1820    -2.2740     1.1840 c3         1 TCM      -0.078100
      9 C9          -1.7970    -0.7690     1.6710 c3         1 TCM      -0.078100
     10 C10         -0.6820    -0.4700    -1.2860 c3         1 TCM      -0.060100
     11 S2           2.5040    -0.0140    -1.2710 s          1 TCM      -0.342400
     12 H31          2.4830    -0.8990     1.7240 hc         1 TCM       0.073700
     13 H32          2.5150     0.8800     1.7160 hc         1 TCM       0.073700
     14 H4           0.6070    -0.2990     3.2890 hc         1 TCM       0.081700
     15 H51          0.7390     2.2080     2.1910 hc         1 TCM       0.048200
     16 H52         -0.8850     1.6160     2.6140 hc         1 TCM       0.048200
     17 H61         -1.4620     1.6020     0.3850 hc         1 TCM       0.053700
     18 H62          0.1620     2.1960    -0.0390 hc         1 TCM       0.053700
     19 H81         -0.6060    -2.8980     0.7790 hc         1 TCM       0.039367
     20 H82          0.4600    -2.6360     2.1660 hc         1 TCM       0.039367
     21 H83          1.0430    -2.3100     0.5280 hc         1 TCM       0.039367
     22 H91         -1.9060    -0.9510     2.7330 hc         1 TCM       0.039367
     23 H92         -2.1890     0.2120     1.4310 hc         1 TCM       0.039367
     24 H93         -2.3430    -1.5220     1.1170 hc         1 TCM       0.039367
     25 H101        -0.4320     0.2060    -2.0950 hc         1 TCM       0.046033
     26 H102        -0.3420    -1.4690    -1.5310 hc         1 TCM       0.046033
     27 H103        -1.7560    -0.4790    -1.1420 hc         1 TCM       0.046033
@<TRIPOS>BOND
     1     1     2 1
     2     1     6 1
     3     1     7 1
     4     1    10 1
     5     2     3 1
     6     2    11 2
     7     3     4 1
     8     3    12 1
     9     3    13 1
    10     4     5 1
    11     4     7 1
    12     4    14 1
    13     5     6 1
    14     5    15 1
    15     5    16 1
    16     6    17 1
    17     6    18 1
    18     7     8 1
    19     7     9 1
    20     8    19 1
    21     8    20 1
    22     8    21 1
    23     9    22 1
    24     9    23 1
    25     9    24 1
    26    10    25 1
    27    10    26 1
    28    10    27 1
@<TRIPOS>SUBSTRUCTURE
     1 TCM         1 TEMP              0 ****  ****    0 ROOT
