@<TRIPOS>MOLECULE
TCM
   27    28     1     0     0
SMALL
bcc


@<TRIPOS>ATOM
      1 C1         -0.0070    0.0190    0.0070 c3        1 TCM     -0.109000
      2 C2          1.5230   -0.0010   -0.0140 c         1 TCM      0.245400
      3 C3          1.9310    0.0000    1.4470 c3        1 TCM     -0.140400
      4 C4          0.5900    0.0440    2.2090 c3        1 TCM     -0.070700
      5 C5          0.0230    1.4580    1.9760 c3        1 TCM     -0.083400
      6 C6         -0.3680    1.4510    0.4890 c3        1 TCM     -0.072400
      7 C7         -0.3180   -0.8370    1.2910 c3        1 TCM     -0.050000
      8 C8          0.1460   -2.2740    1.1900 c3        1 TCM     -0.083100
      9 C9         -1.7750   -0.8390    1.6910 c3        1 TCM     -0.083100
     10 C10        -0.6910   -0.4020   -1.2530 c3        1 TCM     -0.074100
     11 S2          2.4580    0.0020   -1.2220 s         1 TCM     -0.275400
     12 H31         2.5090   -0.9230    1.7000 hc        1 TCM      0.074200
     13 H32         2.5730    0.8840    1.6850 hc        1 TCM      0.074200
     14 H4          0.6480   -0.2690    3.2670 hc        1 TCM      0.074700
     15 H51         0.7870    2.2420    2.1960 hc        1 TCM      0.047700
     16 H52        -0.8600    1.6480    2.6310 hc        1 TCM      0.047700
     17 H61        -1.4590    1.6380    0.3500 hc        1 TCM      0.052700
     18 H62         0.1930    2.2220   -0.0900 hc        1 TCM      0.052700
     19 H81        -0.5660   -2.8620    0.5590 hc        1 TCM      0.039033
     20 H82         1.1590   -2.3580    0.7290 hc        1 TCM      0.039033
     21 H83         0.1810   -2.7320    2.2080 hc        1 TCM      0.039033
     22 H91        -2.3800   -1.3650    0.9120 hc        1 TCM      0.039033
     23 H92        -1.8960   -1.3800    2.6620 hc        1 TCM      0.039033
     24 H93        -2.1860    0.1900    1.8120 hc        1 TCM      0.039033
     25 H101       -0.3250    0.2060   -2.1170 hc        1 TCM      0.047033
     26 H102       -0.4850   -1.4800   -1.4660 hc        1 TCM      0.047033
     27 H103       -1.7950   -0.2640   -1.1550 hc        1 TCM      0.047033
@<TRIPOS>BOND
     1    1    2 1   
     2    1    6 1   
     3    1    7 1   
     4    1   10 1   
     5    2    3 1   
     6    2   11 2   
     7    3    4 1   
     8    3   12 1   
     9    3   13 1   
    10    4    5 1   
    11    4    7 1   
    12    4   14 1   
    13    5    6 1   
    14    5   15 1   
    15    5   16 1   
    16    6   17 1   
    17    6   18 1   
    18    7    8 1   
    19    7    9 1   
    20    8   19 1   
    21    8   20 1   
    22    8   21 1   
    23    9   22 1   
    24    9   23 1   
    25    9   24 1   
    26   10   25 1   
    27   10   26 1   
    28   10   27 1   
@<TRIPOS>SUBSTRUCTURE
     1 TCM         1 TEMP              0 ****  ****    0 ROOT
