@<TRIPOS>MOLECULE
molecule
   40    40     1     0     0
SMALL
bcc


@<TRIPOS>ATOM
      1 N            0.0000     0.0000     0.0000 ns         1 TCO      -0.557900
      2 CA           1.4640     0.0000     0.0000 c3         1 TCO       0.020700
      3 C            1.9680     0.0000     1.4210 c          1 TCO       0.550900
      4 O            1.1840     0.0000     2.3380 o          1 TCO      -0.504100
      5 CG2          3.5040     1.2480    -0.7230 c3         1 TCO      -0.075900
      6 CD2          4.0140     2.4970    -1.4450 c3         1 TCO      -0.078900
      7 CE           3.5040     2.4970    -2.8870 c3         1 TCO      -0.081400
      8 CD1          1.9740     2.4970    -2.8860 c3         1 TCO      -0.078900
      9 CG1          1.4640     1.2480    -2.1640 c3         1 TCO      -0.075900
     10 CB           1.9750     1.2480    -0.7220 c3         1 TCO      -0.078700
     11 C1          -0.6750    -1.1660     0.0020 c          1 TCO       0.766100
     12 O1          -0.0670    -2.2180     0.0010 o          1 TCO      -0.623000
     13 O2          -2.0210    -1.1660     0.0030 os         1 TCO      -0.445900
     14 C4          -4.2510    -2.1430     0.0050 c3         1 TCO      -0.106433
     15 C3          -2.7470    -2.4230     0.0040 c3         1 TCO       0.186800
     16 C6          -2.3770    -3.2240     1.2520 c3         1 TCO      -0.106433
     17 C5          -2.3800    -3.2250    -1.2460 c3         1 TCO      -0.106433
     18 HN          -0.5000     0.8670     0.0280 hn         1 TCO       0.328500
     19 HA           1.8250    -0.8850    -0.5100 h1         1 TCO       0.105700
     20 HC           3.0310    -0.0630     1.6180 h4         1 TCO       0.001200
     21 HG21         3.8630     0.3640    -1.2360 hc         1 TCO       0.046950
     22 HG22         3.8640     1.2500     0.2990 hc         1 TCO       0.046950
     23 HD21         3.6510     3.3810    -0.9350 hc         1 TCO       0.044200
     24 HD22         5.0980     2.4940    -1.4470 hc         1 TCO       0.044200
     25 HE1          3.8640     1.6110    -3.3960 hc         1 TCO       0.044200
     26 HE2          3.8630     3.3830    -3.3950 hc         1 TCO       0.044200
     27 HD11         1.6150     3.3810    -2.3730 hc         1 TCO       0.044200
     28 HD12         1.6140     2.4940    -3.9070 hc         1 TCO       0.044200
     29 HG11         1.8270     0.3640    -2.6740 hc         1 TCO       0.046950
     30 HG12         0.3810     1.2510    -2.1610 hc         1 TCO       0.046950
     31 HB           1.6170     2.1360    -0.2150 hc         1 TCO       0.058700
     32 H41         -4.5110    -1.5740     0.8890 hc         1 TCO       0.049700
     33 H42         -4.5130    -1.5760    -0.8800 hc         1 TCO       0.049700
     34 H43         -4.7930    -3.0810     0.0070 hc         1 TCO       0.049700
     35 H61         -1.4480    -3.7540     1.0800 hc         1 TCO       0.049700
     36 H62         -3.1630    -3.9370     1.4700 hc         1 TCO       0.049700
     37 H63         -2.2580    -2.5500     2.0920 hc         1 TCO       0.049700
     38 H51         -2.2820    -2.5540    -2.0900 hc         1 TCO       0.049700
     39 H52         -3.1570    -3.9520    -1.4490 hc         1 TCO       0.049700
     40 H53         -1.4400    -3.7380    -1.0820 hc         1 TCO       0.049700
@<TRIPOS>BOND
     1     1     2 1
     2     1    11 1
     3     1    18 1
     4     2     3 1
     5     2    10 1
     6     2    19 1
     7     3     4 2
     8     3    20 1
     9     5     6 1
    10     5    10 1
    11     5    21 1
    12     5    22 1
    13     6     7 1
    14     6    23 1
    15     6    24 1
    16     7     8 1
    17     7    25 1
    18     7    26 1
    19     8     9 1
    20     8    27 1
    21     8    28 1
    22     9    10 1
    23     9    29 1
    24     9    30 1
    25    10    31 1
    26    11    12 2
    27    11    13 1
    28    13    15 1
    29    14    15 1
    30    14    32 1
    31    14    33 1
    32    14    34 1
    33    15    16 1
    34    15    17 1
    35    16    35 1
    36    16    36 1
    37    16    37 1
    38    17    38 1
    39    17    39 1
    40    17    40 1
@<TRIPOS>SUBSTRUCTURE
     1 TCO         1 TEMP              0 ****  ****    0 ROOT
