@<TRIPOS>MOLECULE
molecule
   31    33     1     0     0
SMALL
bcc


@<TRIPOS>ATOM
      1 C16          0.0000     0.0000     0.0000 ca         1 TCT      -0.107000
      2 C15          1.3600     0.0000     0.0000 ca         1 TCT      -0.134000
      3 C14          2.0790     0.0000     1.1980 ca         1 TCT       0.076100
      4 C13          1.4340    -0.0000     2.4020 ca         1 TCT      -0.123000
      5 C12          0.0300     0.0000     2.4380 ca         1 TCT      -0.042000
      6 C11         -0.6970     0.0000     1.2210 ca         1 TCT      -0.027000
      7 C10         -2.1010    -0.0060     1.2560 ca         1 TCT      -0.148000
      8 C9          -2.7450    -0.0010     2.4600 ca         1 TCT       0.114100
      9 O3          -4.1050    -0.0020     2.4930 oh         1 TCT      -0.523100
     10 C8          -2.0270    -0.0020     3.6590 ca         1 TCT      -0.144000
     11 C7          -0.6670    -0.0020     3.6590 ca         1 TCT      -0.100000
     12 O2           3.4370    -0.0010     1.1650 os         1 TCT      -0.200200
     13 C3           3.8280     1.2960     1.0460 ca         1 TCT       0.098100
     14 C4           2.8880     2.3110     1.1010 ca         1 TCT      -0.187000
     15 C5           3.2860     3.6290     0.9790 ca         1 TCT      -0.099000
     16 C6           4.6230     3.9370     0.8030 ca         1 TCT       0.013400
     17 Cl1          5.1170     5.5950     0.6510 cl         1 TCT      -0.106400
     18 C1           5.5660     2.9290     0.7490 ca         1 TCT      -0.136000
     19 C2           5.1730     1.6050     0.8740 ca         1 TCT       0.094100
     20 O1           6.1000     0.6120     0.8210 oh         1 TCT      -0.499100
     21 H16C        -0.5440    -0.0000    -0.9370 ha         1 TCT       0.142000
     22 H15C         1.8940     0.0000    -0.9430 ha         1 TCT       0.149000
     23 H13C         2.0020    -0.0000     3.3240 ha         1 TCT       0.149000
     24 H10C        -2.6650    -0.1300     0.3400 ha         1 TCT       0.148000
     25 HO3         -4.4200     0.8860     2.4610 ho         1 TCT       0.422000
     26 HC8         -2.5610     0.0020     4.6020 ha         1 TCT       0.143000
     27 HC7         -0.1230    -0.0020     4.5960 ha         1 TCT       0.140000
     28 HC4          1.8400     2.0730     1.2390 ha         1 TCT       0.163000
     29 HC5          2.5500     4.4230     1.0220 ha         1 TCT       0.148000
     30 HC1          6.6130     3.1720     0.6130 ha         1 TCT       0.156000
     31 HO1          6.6420     0.6460     1.5920 ho         1 TCT       0.420000
@<TRIPOS>BOND
     1     1     2 ar
     2     1     6 ar
     3     1    21 1
     4     2     3 ar
     5     2    22 1
     6     3     4 ar
     7     3    12 1
     8     4     5 ar
     9     4    23 1
    10     5     6 ar
    11     5    11 ar
    12     6     7 ar
    13     7     8 ar
    14     7    24 1
    15     8     9 1
    16     8    10 ar
    17     9    25 1
    18    10    11 ar
    19    10    26 1
    20    11    27 1
    21    12    13 1
    22    13    14 ar
    23    13    19 ar
    24    14    15 ar
    25    14    28 1
    26    15    16 ar
    27    15    29 1
    28    16    17 1
    29    16    18 ar
    30    18    19 ar
    31    18    30 1
    32    19    20 1
    33    20    31 1
@<TRIPOS>SUBSTRUCTURE
     1 TCT         1 TEMP              0 ****  ****    0 ROOT
