@<TRIPOS>MOLECULE
TCT
   31    33     1     0     0
SMALL
bcc


@<TRIPOS>ATOM
      1 C16        -0.0230    0.3700    0.3620 ca        1 TCT     -0.108000
      2 C15         1.3040    0.6720    0.5390 ca        1 TCT     -0.147000
      3 C14         1.8720    0.5830    1.8370 ca        1 TCT      0.086100
      4 C13         1.1190    0.2020    2.9310 ca        1 TCT     -0.121000
      5 C12        -0.2510   -0.1190    2.7540 ca        1 TCT     -0.048000
      6 C11        -0.8310   -0.0320    1.4620 ca        1 TCT     -0.013000
      7 C10        -2.2040   -0.3480    1.2900 ca        1 TCT     -0.215000
      8 C9         -2.9570   -0.7370    2.3800 ca        1 TCT      0.129100
      9 O3         -4.2920   -1.0600    2.3010 oh        1 TCT     -0.496100
     10 C8         -2.3840   -0.8290    3.6820 ca        1 TCT     -0.135000
     11 C7         -1.0600   -0.5250    3.8540 ca        1 TCT     -0.091000
     12 O2          3.2360    0.7720    2.0590 os        1 TCT     -0.224200
     13 C3          3.8280    1.8090    1.3490 ca        1 TCT      0.078100
     14 C4          3.2090    3.0440    1.1380 ca        1 TCT     -0.133000
     15 C5          3.9040    4.0770    0.5110 ca        1 TCT     -0.137000
     16 C6          5.2230    3.8740    0.1000 ca        1 TCT      0.036400
     17 CL1         6.0720    5.1340   -0.6610 cl        1 TCT     -0.087400
     18 C1          5.8600    2.6470    0.3010 ca        1 TCT     -0.197000
     19 C2          5.1610    1.6050    0.9220 ca        1 TCT      0.125100
     20 O1          5.7120    0.3680    1.1470 oh        1 TCT     -0.470100
     21 H16C       -0.4810    0.4300   -0.6360 ha        1 TCT      0.137000
     22 H15C        1.9410    0.9790   -0.3040 ha        1 TCT      0.148000
     23 H13C        1.5770    0.1300    3.9290 ha        1 TCT      0.153000
     24 H10C       -2.6480   -0.2800    0.2870 ha        1 TCT      0.136000
     25 HO3        -4.5690   -0.9690    1.3770 ho        1 TCT      0.420000
     26 HC8        -3.0250   -1.1440    4.5180 ha        1 TCT      0.153000
     27 HC7        -0.5970   -0.5900    4.8510 ha        1 TCT      0.140000
     28 HC4         2.1690    3.1910    1.4680 ha        1 TCT      0.157000
     29 HC5         3.4110    5.0470    0.3480 ha        1 TCT      0.153000
     30 HC1         6.8990    2.4930   -0.0250 ha        1 TCT      0.152000
     31 HO1         6.6380    0.4010    0.8630 ho        1 TCT      0.420000
@<TRIPOS>BOND
     1    1    2 ar  
     2    1    6 ar  
     3    1   21 1   
     4    2    3 ar  
     5    2   22 1   
     6    3    4 ar  
     7    3   12 1   
     8    4    5 ar  
     9    4   23 1   
    10    5    6 ar  
    11    5   11 ar  
    12    6    7 ar  
    13    7    8 ar  
    14    7   24 1   
    15    8    9 1   
    16    8   10 ar  
    17    9   25 1   
    18   10   11 ar  
    19   10   26 1   
    20   11   27 1   
    21   12   13 1   
    22   13   14 ar  
    23   13   19 ar  
    24   14   15 ar  
    25   14   28 1   
    26   15   16 ar  
    27   15   29 1   
    28   16   17 1   
    29   16   18 ar  
    30   18   19 ar  
    31   18   30 1   
    32   19   20 1   
    33   20   31 1   
@<TRIPOS>SUBSTRUCTURE
     1 TCT         1 TEMP              0 ****  ****    0 ROOT
