@<TRIPOS>MOLECULE
TCU
   45    46     1     0     0
SMALL
bcc


@<TRIPOS>ATOM
      1 O17         0.0550   -0.3340    0.0130 oh        1 TCU     -0.476100
      2 C6          1.4110   -0.1230    0.0570 ca        1 TCU      0.129100
      3 C1          2.1510   -0.1970    1.2450 ca        1 TCU     -0.211000
      4 C2          3.5300    0.0290    1.2270 ca        1 TCU     -0.035300
      5 C16         4.3080   -0.0430    2.4950 c3        1 TCU     -0.041100
      6 C17         4.4870   -1.4760    2.9620 c3        1 TCU     -0.076400
      7 C18         5.2520   -1.5290    4.2670 c3        1 TCU     -0.080400
      8 C19         5.4350   -2.9570    4.7360 c3        1 TCU     -0.079400
      9 C20         6.1990   -3.0140    6.0410 c3        1 TCU     -0.080400
     10 C21         6.3840   -4.4330    6.5120 c3        1 TCU     -0.093100
     11 C3          4.1690    0.3310    0.0190 ca        1 TCU     -0.158000
     12 C4          3.4430    0.4060   -1.1670 ca        1 TCU     -0.100000
     13 C5          2.0640    0.1780   -1.1580 ca        1 TCU      0.051100
     14 O7          1.3640    0.1010   -2.3580 os        1 TCU     -0.235200
     15 C8          0.8690    1.3020   -2.8610 ca        1 TCU      0.121100
     16 C9          1.1370    2.5520   -2.2980 ca        1 TCU     -0.186000
     17 C10         0.6070    3.6960   -2.8940 ca        1 TCU     -0.105000
     18 C11        -0.1810    3.5900   -4.0380 ca        1 TCU     -0.158000
     19 C12        -0.4450    2.3370   -4.5930 ca        1 TCU     -0.107000
     20 C13         0.0700    1.1730   -4.0190 ca        1 TCU     -0.092300
     21 C14        -0.2020   -0.1610   -4.5950 c3        1 TCU     -0.044800
     22 H17        -0.2410   -0.5430    0.9120 ho        1 TCU      0.419000
     23 H1          1.6450   -0.4360    2.1910 ha        1 TCU      0.138000
     24 H161        5.3160    0.4310    2.3540 hc        1 TCU      0.050700
     25 H162        3.7740    0.5440    3.2910 hc        1 TCU      0.050700
     26 H3          5.2550    0.5090    0.0030 ha        1 TCU      0.139000
     27 H171        3.4820   -1.9560    3.0910 hc        1 TCU      0.045700
     28 H172        5.0360   -2.0610    2.1780 hc        1 TCU      0.045700
     29 H181        6.2550   -1.0440    4.1360 hc        1 TCU      0.039700
     30 H182        4.7020   -0.9440    5.0510 hc        1 TCU      0.039700
     31 H191        5.9860   -3.5420    3.9530 hc        1 TCU      0.040700
     32 H192        4.4320   -3.4420    4.8660 hc        1 TCU      0.040700
     33 H201        7.2010   -2.5270    5.9090 hc        1 TCU      0.038700
     34 H202        5.6480   -2.4270    6.8230 hc        1 TCU      0.038700
     35 H211        6.9540   -5.0280    5.7570 hc        1 TCU      0.033367
     36 H212        6.9490   -4.4530    7.4750 hc        1 TCU      0.033367
     37 H213        5.3960   -4.9280    6.6730 hc        1 TCU      0.033367
     38 H4          3.9430    0.6380   -2.1200 ha        1 TCU      0.151000
     39 H9          1.7580    2.6300   -1.3930 ha        1 TCU      0.143000
     40 H10         0.8140    4.6830   -2.4540 ha        1 TCU      0.131000
     41 H11        -0.5970    4.4940   -4.5050 ha        1 TCU      0.131000
     42 H12        -1.0710    2.2600   -5.4950 ha        1 TCU      0.133000
     43 H141       -0.9340   -0.0990   -5.4360 hc        1 TCU      0.047367
     44 H142        0.7480   -0.6130   -4.9770 hc        1 TCU      0.047367
     45 H143       -0.6110   -0.8420   -3.8070 hc        1 TCU      0.047367
@<TRIPOS>BOND
     1    1    2 1   
     2    1   22 1   
     3    2    3 ar  
     4    2   13 ar  
     5    3    4 ar  
     6    3   23 1   
     7    4    5 1   
     8    4   11 ar  
     9    5    6 1   
    10    5   24 1   
    11    5   25 1   
    12    6    7 1   
    13    6   27 1   
    14    6   28 1   
    15    7    8 1   
    16    7   29 1   
    17    7   30 1   
    18    8    9 1   
    19    8   31 1   
    20    8   32 1   
    21    9   10 1   
    22    9   33 1   
    23    9   34 1   
    24   10   35 1   
    25   10   36 1   
    26   10   37 1   
    27   11   12 ar  
    28   11   26 1   
    29   12   13 ar  
    30   12   38 1   
    31   13   14 1   
    32   14   15 1   
    33   15   16 ar  
    34   15   20 ar  
    35   16   17 ar  
    36   16   39 1   
    37   17   18 ar  
    38   17   40 1   
    39   18   19 ar  
    40   18   41 1   
    41   19   20 ar  
    42   19   42 1   
    43   20   21 1   
    44   21   43 1   
    45   21   44 1   
    46   21   45 1   
@<TRIPOS>SUBSTRUCTURE
     1 TCU         1 TEMP              0 ****  ****    0 ROOT
