@<TRIPOS>MOLECULE
molecule
   45    46     1     0     0
SMALL
bcc


@<TRIPOS>ATOM
      1 O17          0.0000     0.0000     0.0000 oh         1 TCU      -0.505100
      2 C6           1.3600     0.0000     0.0000 ca         1 TCU       0.102100
      3 C1           2.0540     0.0000     1.2000 ca         1 TCU      -0.168000
      4 C2           3.4360     0.0000     1.1980 ca         1 TCU      -0.063300
      5 C16          4.1890    -0.0000     2.5040 c3         1 TCU      -0.038100
      6 C17          4.4440    -1.4430     2.9450 c3         1 TCU      -0.077400
      7 C18          5.2090    -1.4440     4.2700 c3         1 TCU      -0.083400
      8 C19          5.4640    -2.8870     4.7100 c3         1 TCU      -0.081400
      9 C20          6.2280    -2.8880     6.0350 c3         1 TCU      -0.084400
     10 C21          6.4830    -4.3310     6.4760 c3         1 TCU      -0.092100
     11 C3           4.1300     0.0010     0.0020 ca         1 TCU      -0.133000
     12 C4           3.4440     0.0000    -1.1980 ca         1 TCU      -0.117000
     13 C5           2.0580    -0.0040    -1.2040 ca         1 TCU       0.079100
     14 O7           1.3820    -0.0090    -2.3830 os         1 TCU      -0.241200
     15 C8           0.8980     1.1730    -2.8460 ca         1 TCU       0.142100
     16 C9           1.1980     2.3540    -2.1840 ca         1 TCU      -0.196000
     17 C10          0.7060     3.5550    -2.6560 ca         1 TCU      -0.099000
     18 C11         -0.0880     3.5800    -3.7890 ca         1 TCU      -0.160000
     19 C12         -0.3890     2.4050    -4.4510 ca         1 TCU      -0.099000
     20 C13          0.1060     1.2010    -3.9860 ca         1 TCU      -0.105300
     21 C14         -0.2170    -0.0790    -4.7120 c3         1 TCU      -0.036800
     22 H17         -0.3140    -0.8000     0.3880 ho         1 TCU       0.423000
     23 H1           1.5130     0.0310     2.1380 ha         1 TCU       0.143000
     24 H161         5.1360     0.5110     2.3750 hc         1 TCU       0.051200
     25 H162         3.6040     0.5100     3.2590 hc         1 TCU       0.051200
     26 H3           5.2130     0.0030     0.0060 ha         1 TCU       0.138000
     27 H171         5.0300    -1.9540     2.1900 hc         1 TCU       0.045700
     28 H172         3.4980    -1.9540     3.0740 hc         1 TCU       0.045700
     29 H181         6.1550    -0.9330     4.1420 hc         1 TCU       0.041700
     30 H182         4.6230    -0.9340     5.0260 hc         1 TCU       0.041700
     31 H191         4.5170    -3.3980     4.8390 hc         1 TCU       0.042200
     32 H192         6.0500    -3.3960     3.9550 hc         1 TCU       0.042200
     33 H201         7.1750    -2.3770     5.9060 hc         1 TCU       0.039700
     34 H202         5.6430    -2.3770     6.7900 hc         1 TCU       0.039700
     35 H211         7.0250    -4.3310     7.4150 hc         1 TCU       0.033033
     36 H212         5.5370    -4.8410     6.6060 hc         1 TCU       0.033033
     37 H213         7.0690    -4.8410     5.7210 hc         1 TCU       0.033033
     38 H4           3.9900    -0.0010    -2.1340 ha         1 TCU       0.149000
     39 H9           1.8200     2.3350    -1.2970 ha         1 TCU       0.142000
     40 H10          0.9400     4.4780    -2.1390 ha         1 TCU       0.129000
     41 H11         -0.4760     4.5220    -4.1570 ha         1 TCU       0.128000
     42 H12         -1.0090     2.4280    -5.3390 ha         1 TCU       0.133000
     43 H141        -0.8330     0.1410    -5.5750 hc         1 TCU       0.043367
     44 H142         0.7020    -0.5530    -5.0350 hc         1 TCU       0.043367
     45 H143        -0.7530    -0.7460    -4.0470 hc         1 TCU       0.043367
@<TRIPOS>BOND
     1     1     2 1
     2     2     3 ar
     3     2    13 ar
     4     3     4 ar
     5     4     5 1
     6     4    11 ar
     7     5     6 1
     8     6     7 1
     9     7     8 1
    10     8     9 1
    11     9    10 1
    12    11    12 ar
    13    12    13 ar
    14    13    14 1
    15    14    15 1
    16    15    16 ar
    17    15    20 ar
    18    16    17 ar
    19    17    18 ar
    20    18    19 ar
    21    19    20 ar
    22    20    21 1
    23     1    22 1
    24     3    23 1
    25     5    24 1
    26     5    25 1
    27    11    26 1
    28     6    27 1
    29     6    28 1
    30     7    29 1
    31     7    30 1
    32     8    31 1
    33     8    32 1
    34     9    33 1
    35     9    34 1
    36    10    35 1
    37    10    36 1
    38    10    37 1
    39    12    38 1
    40    16    39 1
    41    17    40 1
    42    18    41 1
    43    19    42 1
    44    21    43 1
    45    21    44 1
    46    21    45 1
@<TRIPOS>SUBSTRUCTURE
     1 TCU         1 TEMP              0 ****  ****    0 ROOT
