@<TRIPOS>MOLECULE
TCV
    6     5     1     0     0
SMALL
bcc


@<TRIPOS>ATOM
      1 Cl1         0.0290   -0.0010   -0.0980 cl        1 TCV     -0.065400
      2 C2          1.7070    0.0010    0.0120 c2        1 TCV     -0.068600
      3 C3          2.3830   -0.0010    1.1720 c2        1 TCV      0.062800
      4 Cl4         1.6460   -0.0050    2.6920 cl        1 TCV     -0.051400
      5 Cl5         4.0810    0.0020    1.1700 cl        1 TCV     -0.051400
      6 H2          2.2100    0.0040   -0.9660 h4        1 TCV      0.175000
@<TRIPOS>BOND
     1    1    2 1   
     2    2    3 2   
     3    2    6 1   
     4    3    4 1   
     5    3    5 1   
@<TRIPOS>SUBSTRUCTURE
     1 TCV         1 TEMP              0 ****  ****    0 ROOT
