@<TRIPOS>MOLECULE
molecule
    6     5     1     0     0
SMALL
bcc


@<TRIPOS>ATOM
      1 Cl1          0.0000     0.0000     0.0000 cl         1 TCV      -0.099400
      2 C2           1.7350     0.0000     0.0000 c2         1 TCV      -0.169600
      3 C3           2.3920     0.0000     1.1380 c2         1 TCV       0.094800
      4 Cl4          1.5240     0.0000     2.6420 cl         1 TCV      -0.069900
      5 Cl5          4.1280    -0.0000     1.1400 cl         1 TCV      -0.069900
      6 H2           1.1230     0.8750     0.1840 h4         1 TCV       0.314000
@<TRIPOS>BOND
     1     1     2 1
     2     2     3 2
     3     3     4 1
     4     3     5 1
     5     2     6 1
@<TRIPOS>SUBSTRUCTURE
     1 TCV         1 TEMP              0 ****  ****    0 ROOT
