@<TRIPOS>MOLECULE
TCW
   31    32     1     0     0
SMALL
bcc


@<TRIPOS>ATOM
      1 O13          0.0000     0.0000     0.0000 o          1 TCW      -0.554100
      2 C12          1.2160     0.0000     0.0000 c          1 TCW       0.653300
      3 C4           1.9540     0.0000     1.2780 ca         1 TCW      -0.186600
      4 C3           1.4320     0.6740     2.3870 ca         1 TCW      -0.022000
      5 C2           2.1280     0.6710     3.5810 ca         1 TCW       0.047100
      6 O7           1.6240     1.3250     4.6610 oh         1 TCW      -0.488100
      7 C5           3.1720    -0.6780     1.3830 ca         1 TCW       0.006000
      8 C6           3.8590    -0.6760     2.5770 ca         1 TCW      -0.478200
      9 N9           5.1490    -1.3940     2.6880 no         1 TCW       1.052200
     10 O11          5.6000    -1.9860     1.7240 o          1 TCW      -0.442500
     11 O10          5.7580    -1.3940     3.7430 o          1 TCW      -0.442500
     12 C1           3.3450    -0.0020     3.6770 ca         1 TCW       0.213100
     13 O8           4.0260    -0.0050     4.8530 oh         1 TCW      -0.462100
     14 C14          1.9550    -0.0080    -1.2790 ca         1 TCW      -0.197600
     15 C19          1.2690    -0.1720    -2.4850 ca         1 TCW      -0.053000
     16 C18          1.9660    -0.1790    -3.6750 ca         1 TCW      -0.114500
     17 C17          3.3410    -0.0220    -3.6780 ca         1 TCW      -0.052300
     18 C20          4.0930    -0.0300    -4.9830 c3         1 TCW       0.057200
     19 C16          4.0260     0.1410    -2.4870 ca         1 TCW      -0.114500
     20 C15          3.3430     0.1550    -1.2890 ca         1 TCW      -0.053000
     21 H3           0.5310     1.2660     2.2870 ha         1 TCW       0.133000
     22 HO7          0.8820     0.8510     4.9980 ho         1 TCW       0.417000
     23 H5           3.5390    -1.2620     0.5490 ha         1 TCW       0.154000
     24 HO8          4.3540     0.8620     5.0270 ho         1 TCW       0.424000
     25 H19          0.1930    -0.2950    -2.4850 ha         1 TCW       0.121000
     26 H18          1.4350    -0.3060    -4.6110 ha         1 TCW       0.112500
     27 H20          4.1420    -1.0420    -5.3660 hc         1 TCW       0.012033
     28 H20A         5.0970     0.3440    -4.8230 hc         1 TCW       0.012033
     29 H20B         3.5820     0.6020    -5.6990 hc         1 TCW       0.012033
     30 H16          5.1020     0.2650    -2.4960 ha         1 TCW       0.112500
     31 H15          3.8810     0.2830    -0.3580 ha         1 TCW       0.121000
@<TRIPOS>BOND
     1     1     2 2   
     2     2     3 1   
     3     2    14 1   
     4     3     4 ar  
     5     3     7 ar  
     6     4     5 ar  
     7     4    21 1   
     8     5     6 1   
     9     5    12 ar  
    10     6    22 1   
    11     7     8 ar  
    12     7    23 1   
    13     8     9 1   
    14     8    12 ar  
    15     9    10 1   
    16     9    11 1   
    17    12    13 1   
    18    13    24 1   
    19    14    15 ar  
    20    14    20 ar  
    21    15    16 ar  
    22    15    25 1   
    23    16    17 ar  
    24    16    26 1   
    25    17    18 1   
    26    17    19 ar  
    27    18    27 1   
    28    18    28 1   
    29    18    29 1   
    30    19    20 ar  
    31    19    30 1   
    32    20    31 1   
@<TRIPOS>SUBSTRUCTURE
     1 TCW         1 TEMP              0 ****  ****    0 ROOT
