@<TRIPOS>MOLECULE
molecule
   13    12     1     0     0
SMALL
bcc


@<TRIPOS>ATOM
      1 C4           0.0000     0.0000     0.0000 c3         1 TCX      -0.102100
      2 C3           1.5300     0.0000     0.0000 c3         1 TCX       0.227800
      3 N            2.0200     0.0000     1.3850 n7         1 TCX      -0.900300
      4 P            3.2680    -1.1120     1.5830 p5         1 TCX       1.160800
      5 O3           4.4880    -0.7300     0.6040 o          1 TCX      -0.927167
      6 O2           3.7340    -1.0840     2.9870 o          1 TCX      -0.927167
      7 OXT          2.7330    -2.5870     1.2250 o          1 TCX      -0.927167
      8 H41C        -0.3610    -1.0180     0.0810 hc         1 TCX       0.000700
      9 H42C        -0.3610     0.4390    -0.9220 hc         1 TCX       0.000700
     10 H43C        -0.3610     0.5790     0.8410 hc         1 TCX       0.000700
     11 H31C         1.8910     0.8850    -0.5110 h1         1 TCX       0.022200
     12 H32C         1.8910    -0.8850    -0.5110 h1         1 TCX       0.022200
     13 HN1          2.0150     0.8470     1.9170 hn         1 TCX       0.348800
@<TRIPOS>BOND
     1     1     2 1
     2     2     3 1
     3     3     4 1
     4     4     5 1
     5     4     6 1
     6     4     7 1
     7     1     8 1
     8     1     9 1
     9     1    10 1
    10     2    11 1
    11     2    12 1
    12     3    13 1
@<TRIPOS>SUBSTRUCTURE
     1 TCX         1 TEMP              0 ****  ****    0 ROOT
