@<TRIPOS>MOLECULE
TCX
   13    12     1     0     0
SMALL
bcc


@<TRIPOS>ATOM
      1 C4           0.0000     0.0000     0.0000 c3         1 TCX      -0.020100
      2 C3           1.5300     0.0000     0.0000 c3         1 TCX       0.218800
      3 N            2.0200     0.0000     1.3850 n7         1 TCX      -0.602300
      4 P            3.2680    -1.1120     1.5830 p5         1 TCX       0.532800
      5 O3           4.4880    -0.7300     0.6040 o          1 TCX      -0.750833
      6 O2           3.7340    -1.0840     2.9870 o          1 TCX      -0.750833
      7 OXT          2.7330    -2.5870     1.2250 o          1 TCX      -0.750833
      8 H41C        -0.3610    -1.0180     0.0810 hc         1 TCX      -0.030967
      9 H42C        -0.3610     0.4390    -0.9220 hc         1 TCX      -0.030967
     10 H43C        -0.3610     0.5790     0.8410 hc         1 TCX      -0.030967
     11 H31C         1.8910     0.8850    -0.5110 h1         1 TCX      -0.009300
     12 H32C         1.8910    -0.8850    -0.5110 h1         1 TCX      -0.009300
     13 HN1          2.0150     0.8470     1.9170 hn         1 TCX       0.234800
@<TRIPOS>BOND
     1     1     2 1   
     2     1     8 1   
     3     1     9 1   
     4     1    10 1   
     5     2     3 1   
     6     2    11 1   
     7     2    12 1   
     8     3     4 1   
     9     3    13 1   
    10     4     5 1   
    11     4     6 1   
    12     4     7 1   
@<TRIPOS>SUBSTRUCTURE
     1 TCX         1 TEMP              0 ****  ****    0 ROOT
