@<TRIPOS>MOLECULE
molecule
   12    12     1     0     0
SMALL
bcc


@<TRIPOS>ATOM
      1 C1           0.0000     0.0000     0.0000 ca         1 TCZ       0.043400
      2 C2           1.3840     0.0000     0.0000 ca         1 TCZ      -0.118000
      3 C3           2.0750     0.0000     1.1970 ca         1 TCZ       0.043400
      4 C4           1.3840     0.0000     2.3950 ca         1 TCZ      -0.118000
      5 C5           0.0000     0.0000     2.3950 ca         1 TCZ       0.043400
      6 C6          -0.6900     0.0040     1.1980 ca         1 TCZ      -0.118000
      7 Cl1         -0.8680     0.0000    -1.5040 cl         1 TCZ      -0.086400
      8 Cl3          3.8110    -0.0000     1.1980 cl         1 TCZ      -0.086400
      9 Cl5         -0.8680    -0.0000     3.8980 cl         1 TCZ      -0.086400
     10 H2           1.9260    -0.0020    -0.9380 ha         1 TCZ       0.161000
     11 H4           1.9260    -0.0020     3.3330 ha         1 TCZ       0.161000
     12 H6          -1.7740     0.0040     1.1980 ha         1 TCZ       0.161000
@<TRIPOS>BOND
     1     1     2 ar
     2     1     6 ar
     3     1     7 1
     4     2     3 ar
     5     2    10 1
     6     3     4 ar
     7     3     8 1
     8     4     5 ar
     9     4    11 1
    10     5     6 ar
    11     5     9 1
    12     6    12 1
@<TRIPOS>SUBSTRUCTURE
     1 TCZ         1 TEMP              0 ****  ****    0 ROOT
