@<TRIPOS>MOLECULE
TCZ
   12    12     1     0     0
SMALL
bcc


@<TRIPOS>ATOM
      1 C1         -0.0030    0.0010   -0.0060 ca        1 TCZ      0.031400
      2 C2          1.3950   -0.0000   -0.0200 ca        1 TCZ     -0.122000
      3 C3          2.0830   -0.0010    1.1970 ca        1 TCZ      0.031400
      4 C4          1.3950   -0.0010    2.4150 ca        1 TCZ     -0.122000
      5 C5         -0.0030    0.0010    2.4020 ca        1 TCZ      0.031400
      6 C6         -0.7130    0.0020    1.1980 ca        1 TCZ     -0.122000
      7 CL1        -0.8520    0.0020   -1.4770 cl        1 TCZ     -0.075400
      8 CL3         3.7800   -0.0020    1.1970 cl        1 TCZ     -0.075400
      9 CL5        -0.8520    0.0010    3.8720 cl        1 TCZ     -0.075400
     10 H2          1.9450   -0.0010   -0.9740 ha        1 TCZ      0.166000
     11 H4          1.9460   -0.0010    3.3680 ha        1 TCZ      0.166000
     12 H6         -1.8150    0.0030    1.1980 ha        1 TCZ      0.166000
@<TRIPOS>BOND
     1    1    2 ar  
     2    1    6 ar  
     3    1    7 1   
     4    2    3 ar  
     5    2   10 1   
     6    3    4 ar  
     7    3    8 1   
     8    4    5 ar  
     9    4   11 1   
    10    5    6 ar  
    11    5    9 1   
    12    6   12 1   
@<TRIPOS>SUBSTRUCTURE
     1 TCZ         1 TEMP              0 ****  ****    0 ROOT
