@<TRIPOS>MOLECULE
TD1
   39    39     1     0     0
SMALL
bcc


@<TRIPOS>ATOM
      1 C1           0.0000     0.0000     0.0000 ca         1 TD1      -0.148600
      2 C2           1.3990     0.0000     0.0000 ca         1 TD1       0.177100
      3 C3           2.0880     0.0000     1.2100 ca         1 TD1       0.058100
      4 C4           1.3890    -0.0010     2.4040 ca         1 TD1      -0.120000
      5 C5           0.0040    -0.0010     2.4040 ca         1 TD1      -0.121000
      6 C6          -0.6920     0.0000     1.2150 ca         1 TD1      -0.089000
      7 C7          -0.7420     0.0070    -1.2750 c          1 TD1       0.595700
      8 O8          -0.1370     0.0120    -2.3300 o          1 TD1      -0.612100
      9 N9          -2.0900     0.0070    -1.2710 ns         1 TD1      -0.164900
     10 O10          2.0810     0.0010    -1.1730 oh         1 TD1      -0.461100
     11 O11          3.4480     0.0000     1.2180 oh         1 TD1      -0.493100
     12 C12         -2.8260     0.0130    -2.5370 c3         1 TD1      -0.107300
     13 C13         -2.9720     1.4310    -3.0260 c          1 TD1       0.964600
     14 C14         -4.2120    -0.5980    -2.3240 c3         1 TD1       0.239400
     15 O15         -4.9820     0.2480    -1.4290 os         1 TD1      -0.336900
     16 O16         -3.6170     1.6810    -4.1770 o          1 TD1      -0.870300
     17 O17         -2.5080     2.3430    -2.3840 o          1 TD1      -0.870300
     18 C24         -6.2290    -0.1500    -1.1370 c          1 TD1       0.694100
     19 O25         -6.6660    -1.1710    -1.6150 o          1 TD1      -0.598000
     20 C26         -7.0880     0.6760    -0.2150 c3         1 TD1      -0.148500
     21 N27         -8.5010     0.3310    -0.4200 nz         1 TD1       0.098400
     22 C28         -6.6980     0.3900     1.2370 c3         1 TD1       0.223400
     23 O45         -7.4290     1.2570     2.1060 oh         1 TD1      -0.616800
     24 H4           1.9280    -0.0010     3.3440 ha         1 TD1       0.108000
     25 H5          -0.5350    -0.0010     3.3440 ha         1 TD1       0.096000
     26 H6          -1.7760    -0.0000     1.2220 ha         1 TD1       0.095000
     27 HN9         -2.5880    -0.0380    -0.4040 hn         1 TD1       0.149500
     28 HO10         2.5030     0.8360    -1.2910 ho         1 TD1       0.415000
     29 HO11         3.7610    -0.8500     1.4790 ho         1 TD1       0.403000
     30 H12         -2.2840    -0.5690    -3.2730 h1         1 TD1       0.083700
     31 H14         -4.1090    -1.5850    -1.8890 h1         1 TD1       0.021700
     32 H14A        -4.7230    -0.6740    -3.2760 h1         1 TD1       0.021700
     33 H26         -6.9380     1.7270    -0.4280 hx         1 TD1       0.126700
     34 HN27        -9.0790     1.0200     0.0180 hn         1 TD1       0.227800
     35 HN2A        -8.6870    -0.5660    -0.0170 hn         1 TD1       0.227800
     36 H28         -6.9290    -0.6400     1.4770 h1         1 TD1       0.031700
     37 H28A        -5.6360     0.5610     1.3660 h1         1 TD1       0.031700
     38 HO45        -7.0090     1.2830     2.9500 ho         1 TD1       0.441000
     39 H273        -8.7000     0.3100    -1.4000 hn         1 TD1       0.227800
@<TRIPOS>BOND
     1     1     2 ar  
     2     1     6 ar  
     3     1     7 1   
     4     2     3 ar  
     5     2    10 1   
     6     3     4 ar  
     7     3    11 1   
     8     4     5 ar  
     9     4    24 1   
    10     5     6 ar  
    11     5    25 1   
    12     6    26 1   
    13     7     8 2   
    14     7     9 1   
    15     9    12 1   
    16     9    27 1   
    17    10    28 1   
    18    11    29 1   
    19    12    13 1   
    20    12    14 1   
    21    12    30 1   
    22    13    16 1   
    23    13    17 1   
    24    14    15 1   
    25    14    31 1   
    26    14    32 1   
    27    15    18 1   
    28    18    19 2   
    29    18    20 1   
    30    20    21 1   
    31    20    22 1   
    32    20    33 1   
    33    21    34 1   
    34    21    35 1   
    35    21    39 1   
    36    22    23 1   
    37    22    36 1   
    38    22    37 1   
    39    23    38 1   
@<TRIPOS>SUBSTRUCTURE
     1 TD1         1 TEMP              0 ****  ****    0 ROOT
