@<TRIPOS>MOLECULE
TD3
   27    26     1     0     0
SMALL
bcc


@<TRIPOS>ATOM
      1 O01          0.0000     0.0000     0.0000 oh         1 TD3      -0.444100
      2 N02          1.4160     0.0000     0.0000 n          1 TD3      -0.087300
      3 C03          2.1480     0.0000     1.2690 c3         1 TD3       0.058000
      4 C04          2.7270     1.3930     1.5240 c3         1 TD3      -0.054400
      5 C05          3.4910     1.3930     2.8490 c3         1 TD3      -0.033400
      6 C06          4.0690     2.7870     3.1050 c3         1 TD3       0.221400
      7 O07          4.7840     2.7870     4.3420 oh         1 TD3      -0.606800
      8 C12          2.0900    -0.0000    -1.1670 c          1 TD3       0.564100
      9 O13          3.3030     0.0000    -1.1670 o          1 TD3      -0.630100
     10 C14          1.3360     0.0000    -2.4720 c3         1 TD3       0.234400
     11 O15          2.2650     0.0010    -3.5580 os         1 TD3      -0.447200
     12 P16          1.8090     0.0000    -5.1030 p5         1 TD3       0.669900
     13 O17          3.1070     0.1340    -6.0450 o          1 TD3      -0.753833
     14 O18          1.0420    -1.3750    -5.4360 o          1 TD3      -0.753833
     15 O19          0.9010     1.1430    -5.3490 o          1 TD3      -0.753833
     16 HO01        -0.3140    -0.8210     0.3410 ho         1 TD3       0.367000
     17 H103         2.9540    -0.7220     1.2210 h1         1 TD3       0.008700
     18 H203         1.4750    -0.2640     2.0750 h1         1 TD3       0.008700
     19 H104         1.9210     2.1160     1.5710 hc         1 TD3       0.036200
     20 H204         3.4010     1.6570     0.7180 hc         1 TD3       0.036200
     21 H105         4.2970     0.6710     2.8020 hc         1 TD3       0.013700
     22 H205         2.8160     1.1290     3.6550 hc         1 TD3       0.013700
     23 H106         3.2640     3.5090     3.1530 h1         1 TD3      -0.012300
     24 H206         4.7430     3.0510     2.2990 h1         1 TD3      -0.012300
     25 HO07         5.1400     3.6450     4.5000 ho         1 TD3       0.378000
     26 H114         0.7140    -0.8840    -2.5300 h1         1 TD3      -0.009800
     27 H214         0.7130     0.8850    -2.5290 h1         1 TD3      -0.009800
@<TRIPOS>BOND
     1     1     2 1   
     2     1    16 1   
     3     2     3 1   
     4     2     8 1   
     5     3     4 1   
     6     3    17 1   
     7     3    18 1   
     8     4     5 1   
     9     4    19 1   
    10     4    20 1   
    11     5     6 1   
    12     5    21 1   
    13     5    22 1   
    14     6     7 1   
    15     6    23 1   
    16     6    24 1   
    17     7    25 1   
    18     8     9 2   
    19     8    10 1   
    20    10    11 1   
    21    10    26 1   
    22    10    27 1   
    23    11    12 1   
    24    12    13 1   
    25    12    14 1   
    26    12    15 1   
@<TRIPOS>SUBSTRUCTURE
     1 TD3         1 TEMP              0 ****  ****    0 ROOT
