@<TRIPOS>MOLECULE
TD4
   30    29     1     0     0
SMALL
bcc


@<TRIPOS>ATOM
      1 O01          0.0000     0.0000     0.0000 oh         1 TD4      -0.456100
      2 N02          1.4160     0.0000     0.0000 n          1 TD4      -0.080300
      3 C03          2.1490     0.0000     1.2690 c3         1 TD4       0.051000
      4 C04          2.7270     1.3940     1.5230 c3         1 TD4      -0.055400
      5 C05          3.4920     1.3950     2.8480 c3         1 TD4      -0.055400
      6 C06          4.0720     2.7880     3.1010 c3         1 TD4       0.288400
      7 O07          4.7860     2.7890     4.3390 os         1 TD4      -0.487200
      8 P08          5.5280     4.0930     4.9210 p5         1 TD4       0.684900
      9 O09          4.5600     5.2100     5.0140 o          1 TD4      -0.770833
     10 O10          6.1130     3.7680     6.3860 o          1 TD4      -0.770833
     11 O11          6.7340     4.5080     3.9410 o          1 TD4      -0.770833
     12 C12          2.0890    -0.0020    -1.1680 c          1 TD4       0.559100
     13 O13          3.3030    -0.0020    -1.1670 o          1 TD4      -0.617100
     14 C14          1.3360    -0.0030    -2.4730 c3         1 TD4       0.234400
     15 O15          2.2650    -0.0040    -3.5590 os         1 TD4      -0.445200
     16 P16          1.8090    -0.0060    -5.1020 p5         1 TD4       0.684900
     17 O17          3.1060     0.1250    -6.0460 o          1 TD4      -0.768500
     18 O18          1.0400    -1.3810    -5.4340 o          1 TD4      -0.768500
     19 O19          0.9010     1.1380    -5.3500 o          1 TD4      -0.768500
     20 HO01        -0.3140    -0.8170     0.3500 ho         1 TD4       0.355000
     21 H03          2.9550    -0.7220     1.2200 h1         1 TD4       0.003200
     22 H03A         1.4750    -0.2640     2.0750 h1         1 TD4       0.003200
     23 H04          1.9210     2.1160     1.5700 hc         1 TD4       0.029200
     24 H04A         3.4010     1.6570     0.7170 hc         1 TD4       0.029200
     25 H05          2.8180     1.1320     3.6540 hc         1 TD4      -0.006800
     26 H05A         4.2970     0.6720     2.8010 hc         1 TD4      -0.006800
     27 H06          3.2660     3.5110     3.1480 h1         1 TD4      -0.029800
     28 H06A         4.7460     3.0500     2.2940 h1         1 TD4      -0.029800
     29 H14          0.7130    -0.8880    -2.5290 h1         1 TD4      -0.018800
     30 H14A         0.7130     0.8810    -2.5310 h1         1 TD4      -0.018800
@<TRIPOS>BOND
     1     1     2 1   
     2     1    20 1   
     3     2     3 1   
     4     2    12 1   
     5     3     4 1   
     6     3    21 1   
     7     3    22 1   
     8     4     5 1   
     9     4    23 1   
    10     4    24 1   
    11     5     6 1   
    12     5    25 1   
    13     5    26 1   
    14     6     7 1   
    15     6    27 1   
    16     6    28 1   
    17     7     8 1   
    18     8     9 1   
    19     8    10 1   
    20     8    11 1   
    21    12    13 2   
    22    12    14 1   
    23    14    15 1   
    24    14    29 1   
    25    14    30 1   
    26    15    16 1   
    27    16    17 1   
    28    16    18 1   
    29    16    19 1   
@<TRIPOS>SUBSTRUCTURE
     1 TD4         1 TEMP              0 ****  ****    0 ROOT
