@<TRIPOS>MOLECULE
molecule
   57    58     1     0     0
SMALL
bcc


@<TRIPOS>ATOM
      1 S1           0.0000     0.0000     0.0000 ss         1 TD8       0.003200
      2 C2           1.7100     0.0000     0.0000 cc         1 TD8      -0.231700
      3 N3           2.1550     0.0000     1.2110 na         1 TD8       0.032900
      4 C4           1.2600    -0.0000     2.1800 cc         1 TD8      -0.091600
      5 C5          -0.0080     0.0000     1.7620 cd         1 TD8      -0.089400
      6 C8           2.5720     0.0010    -1.2360 c3         1 TD8       0.245400
      7 C9           2.5580    -1.3920    -1.8690 c3         1 TD8      -0.097400
      8 O9           2.0640     0.9540    -2.1720 oh         1 TD8      -0.593800
      9 PA          -3.5170     2.7920     4.2880 p5         1 TD8       1.434800
     10 PB          -5.5730     3.2600     6.3710 p5         1 TD8       1.311900
     11 N1'          3.6490     3.7130     1.7340 nb         1 TD8      -0.720000
     12 C10          3.5300    -1.4270    -3.0500 c3         1 TD8      -0.066400
     13 O11          4.6260    -3.9820    -5.5560 o          1 TD8      -0.863300
     14 C12          3.5150    -2.8190    -3.6820 c3         1 TD8      -0.180400
     15 O12          5.1020    -1.8640    -5.1390 o          1 TD8      -0.863300
     16 C14          4.4720    -2.8530    -4.8460 c          1 TD8       0.892600
     17 O1A         -2.5230     3.6420     4.9800 o          1 TD8      -0.847000
     18 O1B         -4.6750     3.5650     7.6730 o          1 TD8      -0.727833
     19 C2'          4.9340     3.9430     1.9100 ca         1 TD8       0.690300
     20 C2A          5.4090     5.3660     2.0590 c3         1 TD8      -0.121400
     21 O2A         -4.1220     3.5910     3.0280 o          1 TD8      -0.847000
     22 O2B         -6.0020     4.5370     5.7590 o          1 TD8      -0.727833
     23 N3'          5.8150     2.9650     1.9600 nb         1 TD8      -0.775000
     24 C35          3.5910     0.0000     1.4970 c3         1 TD8       0.083600
     25 O3A         -4.7070     2.4180     5.3070 os         1 TD8      -0.714800
     26 O3B         -6.8690     2.4070     6.8010 o          1 TD8      -0.727833
     27 C4'          5.4300     1.6980     1.8340 ca         1 TD8       0.712200
     28 N4'          6.3590     0.6720     1.8870 nv         1 TD8      -1.084500
     29 C4A          1.6390    -0.0010     3.6390 c3         1 TD8      -0.027800
     30 C5'          4.0750     1.4190     1.6450 ca         1 TD8      -0.381900
     31 C5A         -1.2320    -0.0000     2.6420 c3         1 TD8      -0.009100
     32 C5B         -1.6450     1.4420     2.9400 c3         1 TD8       0.235400
     33 O5G         -2.8050     1.4420     3.7750 os         1 TD8      -0.607200
     34 C6'          3.1880     2.4770     1.6000 ca         1 TD8       0.492200
     35 H8           3.5880     0.2650    -0.9670 h1         1 TD8       0.028700
     36 H9           2.8590    -2.1260    -1.1310 hc         1 TD8       0.045700
     37 H9A          1.5570    -1.6200    -2.2170 hc         1 TD8       0.045700
     38 HO9          2.7520     1.5490    -2.4200 ho         1 TD8       0.401000
     39 H10          3.2290    -0.6920    -3.7870 hc         1 TD8       0.044200
     40 H10A         4.5300    -1.1990    -2.7010 hc         1 TD8       0.044200
     41 H12          3.8170    -3.5540    -2.9450 hc         1 TD8       0.029200
     42 H12A         2.5150    -3.0470    -4.0310 hc         1 TD8       0.029200
     43 H2A          5.1040     5.9410     1.1930 hc         1 TD8       0.055700
     44 H2AA         4.9750     5.8000     2.9520 hc         1 TD8       0.055700
     45 H2AB         6.4890     5.3790     2.1390 hc         1 TD8       0.055700
     46 H35          3.7770    -0.5420     2.4160 h1         1 TD8       0.077700
     47 H35A         4.1220    -0.4780     0.6830 h1         1 TD8       0.077700
     48 HN4'         6.5410     0.2070     2.7550 hn         1 TD8       0.436300
     49 HN4A         6.8920     0.4380     1.0730 hn         1 TD8       0.436300
     50 H4A          0.8320    -0.4290     4.2210 hc         1 TD8       0.055367
     51 H4AA         1.8210     1.0160     3.9650 hc         1 TD8       0.055367
     52 H4AB         2.5370    -0.5910     3.7790 hc         1 TD8       0.055367
     53 H5A         -2.0420    -0.5110     2.1350 hc         1 TD8       0.055200
     54 H5AA        -1.0090    -0.5110     3.5710 hc         1 TD8       0.055200
     55 H5B         -1.8690     1.9520     2.0110 h1         1 TD8       0.027700
     56 H5BA        -0.8360     1.9520     3.4470 h1         1 TD8       0.027700
     57 H6'          2.1510     2.2750     1.3590 h4         1 TD8       0.065100
@<TRIPOS>BOND
     1     1     2 1
     2     1     5 1
     3     2     3 2
     4     2     6 1
     5     3     4 1
     6     3    24 1
     7     4     5 2
     8     4    29 1
     9     5    31 1
    10     6     7 1
    11     6     8 1
    12     7    12 1
    13     9    17 1
    14     9    21 1
    15     9    25 1
    16     9    33 1
    17    10    18 1
    18    10    22 1
    19    10    25 1
    20    10    26 1
    21    11    19 ar
    22    11    34 ar
    23    12    14 1
    24    13    16 1
    25    14    16 1
    26    15    16 1
    27    19    20 1
    28    19    23 ar
    29    23    27 ar
    30    24    30 1
    31    27    28 1
    32    27    30 ar
    33    30    34 ar
    34    31    32 1
    35    32    33 1
    36     6    35 1
    37     7    36 1
    38     7    37 1
    39     8    38 1
    40    12    39 1
    41    12    40 1
    42    14    41 1
    43    14    42 1
    44    20    43 1
    45    20    44 1
    46    20    45 1
    47    24    46 1
    48    24    47 1
    49    28    48 1
    50    28    49 1
    51    29    50 1
    52    29    51 1
    53    29    52 1
    54    31    53 1
    55    31    54 1
    56    32    55 1
    57    32    56 1
    58    34    57 1
@<TRIPOS>SUBSTRUCTURE
     1 TD8         1 TEMP              0 ****  ****    0 ROOT
