@<TRIPOS>MOLECULE
molecule
   57    58     1     0     0
SMALL
bcc


@<TRIPOS>ATOM
      1 S1           0.0000     0.0000     0.0000 ss         1 TD9       0.002200
      2 C2           1.7100     0.0000     0.0000 cc         1 TD9      -0.247700
      3 N3           2.1540     0.0000     1.2120 na         1 TD9       0.036900
      4 C4           1.2600    -0.0010     2.1790 cc         1 TD9      -0.088600
      5 C5          -0.0100    -0.0010     1.7620 cd         1 TD9      -0.089400
      6 C8           2.5730     0.0020    -1.2350 c3         1 TD9       0.245400
      7 C9           2.5590     1.3950    -1.8660 c3         1 TD9      -0.090400
      8 O9           2.0650    -0.9510    -2.1720 oh         1 TD9      -0.594800
      9 PA          -3.5210     2.7890     4.2870 p5         1 TD9       1.428800
     10 PB          -6.1940     3.2310     5.4870 p5         1 TD9       1.304900
     11 N1'          3.6850    -3.7210     1.5480 nb         1 TD9      -0.780000
     12 C10          3.5310     1.4310    -3.0470 c3         1 TD9      -0.065400
     13 O11          4.6290     3.9890    -5.5490 o          1 TD9      -0.865300
     14 C12          3.5170     2.8250    -3.6770 c3         1 TD9      -0.180400
     15 O12          5.1040     1.8710    -5.1340 o          1 TD9      -0.865300
     16 C14          4.4750     2.8600    -4.8400 c          1 TD9       0.892600
     17 O1A         -3.8610     3.6390     3.1240 o          1 TD9      -0.843500
     18 O1B         -7.3390     2.1980     5.9530 o          1 TD9      -0.719833
     19 C2'          4.9270    -3.9440     1.9250 ca         1 TD9       0.716300
     20 C2A          5.4020    -5.3670     2.0770 c3         1 TD9      -0.119400
     21 O2A         -2.5180     3.5880     5.2610 o          1 TD9      -0.843500
     22 O2B         -5.8630     4.2440     6.6940 o          1 TD9      -0.719833
     23 N3'          5.7670    -2.9590     2.1740 nb         1 TD9      -0.822000
     24 C35          3.5900    -0.0010     1.4990 c3         1 TD9       0.081600
     25 O3A         -4.8640     2.4150     5.0910 os         1 TD9      -0.713800
     26 O3B         -6.6700     3.9980     4.3150 o          1 TD9      -0.719833
     27 C4'          5.3830    -1.6930     2.0510 ca         1 TD9       0.738200
     28 N4'          6.2670    -0.6600     2.3130 nv         1 TD9      -1.002500
     29 C4A          1.6370    -0.0030     3.6390 c3         1 TD9      -0.030800
     30 C5'          4.0710    -1.4210     1.6530 ca         1 TD9      -0.431900
     31 C5A         -1.2330    -0.0020     2.6410 c3         1 TD9      -0.010100
     32 C5B         -1.6480     1.4400     2.9400 c3         1 TD9       0.234400
     33 O5G         -2.8080     1.4390     3.7740 os         1 TD9      -0.607200
     34 C6'          3.2280    -2.4840     1.4020 ca         1 TD9       0.510200
     35 H8           3.5880    -0.2630    -0.9660 h1         1 TD9       0.025700
     36 H9           2.8600     2.1290    -1.1280 hc         1 TD9       0.052700
     37 H9A          1.5590     1.6240    -2.2140 hc         1 TD9       0.052700
     38 HO9          2.6730    -1.6660    -2.2550 ho         1 TD9       0.393000
     39 H10          3.2290     0.6980    -3.7850 hc         1 TD9       0.042200
     40 H10A         4.5310     1.2020    -2.6990 hc         1 TD9       0.042200
     41 H12          2.5180     3.0540    -4.0260 hc         1 TD9       0.033200
     42 H12A         3.8190     3.5580    -2.9390 hc         1 TD9       0.033200
     43 H2A          5.2950    -5.8860     1.1320 hc         1 TD9       0.052700
     44 H2AA         4.8090    -5.8670     2.8320 hc         1 TD9       0.052700
     45 H2AB         6.4440    -5.3700     2.3750 hc         1 TD9       0.052700
     46 H35          3.7760     0.5440     2.4170 h1         1 TD9       0.074700
     47 H35A         4.1220     0.4740     0.6830 h1         1 TD9       0.074700
     48 HN4'         5.9650     0.2910     2.2310 hn         1 TD9       0.442800
     49 HN4A         7.2090    -0.8640     2.5830 hn         1 TD9       0.442800
     50 H4A          0.7400     0.0380     4.2440 hc         1 TD9       0.055367
     51 H4AA         2.1870    -0.9080     3.8690 hc         1 TD9       0.055367
     52 H4AB         2.2570     0.8600     3.8520 hc         1 TD9       0.055367
     53 H5A         -1.0100    -0.5130     3.5700 hc         1 TD9       0.054700
     54 H5AA        -2.0430    -0.5130     2.1340 hc         1 TD9       0.054700
     55 H5B         -1.8730     1.9510     2.0110 h1         1 TD9       0.029200
     56 H5BA        -0.8390     1.9520     3.4470 h1         1 TD9       0.029200
     57 H6'          2.2040    -2.3120     1.0920 h4         1 TD9       0.058100
@<TRIPOS>BOND
     1     1     2 1
     2     1     5 1
     3     2     3 2
     4     2     6 1
     5     3     4 1
     6     3    24 1
     7     4     5 2
     8     4    29 1
     9     5    31 1
    10     6     7 1
    11     6     8 1
    12     7    12 1
    13     9    17 1
    14     9    21 1
    15     9    25 1
    16     9    33 1
    17    10    18 1
    18    10    22 1
    19    10    25 1
    20    10    26 1
    21    11    19 ar
    22    11    34 ar
    23    12    14 1
    24    13    16 1
    25    14    16 1
    26    15    16 1
    27    19    20 1
    28    19    23 ar
    29    23    27 ar
    30    24    30 1
    31    27    28 1
    32    27    30 ar
    33    30    34 ar
    34    31    32 1
    35    32    33 1
    36     6    35 1
    37     7    36 1
    38     7    37 1
    39     8    38 1
    40    12    39 1
    41    12    40 1
    42    14    41 1
    43    14    42 1
    44    20    43 1
    45    20    44 1
    46    20    45 1
    47    24    46 1
    48    24    47 1
    49    28    48 1
    50    28    49 1
    51    29    50 1
    52    29    51 1
    53    29    52 1
    54    31    53 1
    55    31    54 1
    56    32    55 1
    57    32    56 1
    58    34    57 1
@<TRIPOS>SUBSTRUCTURE
     1 TD9         1 TEMP              0 ****  ****    0 ROOT
