@<TRIPOS>MOLECULE
TDA
   40    39     1     0     0
SMALL
bcc


@<TRIPOS>ATOM
      1 O21         0.0320    0.0020    0.0640 o         1 TDA     -0.854800
      2 O22         1.9120   -0.0030   -1.1370 o         1 TDA     -0.854800
      3 C21         1.2940   -0.0000   -0.0330 c         1 TDA      0.907600
      4 C22         2.0970    0.0000    1.2790 c3        1 TDA     -0.193400
      5 C23         3.5870    0.0000    1.0410 c3        1 TDA     -0.062400
      6 C24         4.3670    0.0000    2.3390 c3        1 TDA     -0.079400
      7 C25         5.8590   -0.0000    2.0880 c3        1 TDA     -0.078400
      8 C26         6.6410    0.0000    3.3850 c3        1 TDA     -0.078400
      9 C27         8.1330   -0.0000    3.1310 c3        1 TDA     -0.079400
     10 C28         8.9140    0.0000    4.4270 c3        1 TDA     -0.078400
     11 C29        10.4060   -0.0000    4.1720 c3        1 TDA     -0.079400
     12 C30        11.1880    0.0000    5.4680 c3        1 TDA     -0.079400
     13 C31        12.6790   -0.0000    5.2120 c3        1 TDA     -0.079400
     14 C32        13.4620    0.0000    6.5080 c3        1 TDA     -0.080400
     15 C33        14.9480   -0.0000    6.2580 c3        1 TDA     -0.091100
     16 H222        1.8000   -0.9020    1.8700 hc        1 TDA      0.018700
     17 H221        1.8000    0.9030    1.8700 hc        1 TDA      0.018700
     18 H232        3.8600    0.8990    0.4280 hc        1 TDA      0.044700
     19 H231        3.8600   -0.8990    0.4280 hc        1 TDA      0.044700
     20 H242        4.0880    0.9020    2.9450 hc        1 TDA      0.024700
     21 H241        4.0880   -0.9020    2.9450 hc        1 TDA      0.024700
     22 H252        6.1370    0.9020    1.4820 hc        1 TDA      0.036700
     23 H251        6.1360   -0.9020    1.4820 hc        1 TDA      0.036700
     24 H262        6.3630   -0.9020    3.9910 hc        1 TDA      0.033700
     25 H261        6.3630    0.9020    3.9910 hc        1 TDA      0.033700
     26 H272        8.4110    0.9020    2.5250 hc        1 TDA      0.037700
     27 H271        8.4100   -0.9020    2.5250 hc        1 TDA      0.037700
     28 H282        8.6370   -0.9020    5.0330 hc        1 TDA      0.036700
     29 H281        8.6370    0.9020    5.0330 hc        1 TDA      0.036700
     30 H292       10.6840    0.9020    3.5660 hc        1 TDA      0.038700
     31 H291       10.6840   -0.9020    3.5660 hc        1 TDA      0.038700
     32 H302       10.9100    0.9030    6.0740 hc        1 TDA      0.037700
     33 H301       10.9100   -0.9020    6.0740 hc        1 TDA      0.037700
     34 H312       12.9570    0.9020    4.6060 hc        1 TDA      0.038700
     35 H311       12.9570   -0.9020    4.6060 hc        1 TDA      0.038700
     36 H322       13.1820   -0.9020    7.1140 hc        1 TDA      0.037700
     37 H321       13.1820    0.9030    7.1130 hc        1 TDA      0.037700
     38 H333       15.2500   -0.9050    5.6770 hc        1 TDA      0.030367
     39 H332       15.5060    0.0000    7.2260 hc        1 TDA      0.030367
     40 H331       15.2500    0.9050    5.6770 hc        1 TDA      0.030367
@<TRIPOS>BOND
     1    1    3 1   
     2    2    3 1   
     3    3    4 1   
     4    4    5 1   
     5    4   16 1   
     6    4   17 1   
     7    5    6 1   
     8    5   18 1   
     9    5   19 1   
    10    6    7 1   
    11    6   20 1   
    12    6   21 1   
    13    7    8 1   
    14    7   22 1   
    15    7   23 1   
    16    8    9 1   
    17    8   24 1   
    18    8   25 1   
    19    9   10 1   
    20    9   26 1   
    21    9   27 1   
    22   10   11 1   
    23   10   28 1   
    24   10   29 1   
    25   11   12 1   
    26   11   30 1   
    27   11   31 1   
    28   12   13 1   
    29   12   32 1   
    30   12   33 1   
    31   13   14 1   
    32   13   34 1   
    33   13   35 1   
    34   14   15 1   
    35   14   36 1   
    36   14   37 1   
    37   15   38 1   
    38   15   39 1   
    39   15   40 1   
@<TRIPOS>SUBSTRUCTURE
     1 TDA         1 TEMP              0 ****  ****    0 ROOT
