@<TRIPOS>MOLECULE
molecule
   40    39     1     0     0
SMALL
bcc


@<TRIPOS>ATOM
      1 O21          0.0000     0.0000     0.0000 o          1 TDA      -0.858300
      2 O22          1.9450     0.0000    -1.0460 o          1 TDA      -0.858300
      3 C21          1.3420     0.0000     0.0000 c          1 TDA       0.891600
      4 C22          2.0960     0.0000     1.3050 c3         1 TDA      -0.183400
      5 C23          3.6000    -0.0000     1.0240 c3         1 TDA      -0.063400
      6 C24          4.3660     0.0000     2.3490 c3         1 TDA      -0.088400
      7 C25          5.8700    -0.0000     2.0690 c3         1 TDA      -0.081400
      8 C26          6.6360     0.0000     3.3930 c3         1 TDA      -0.083400
      9 C27          8.1390    -0.0000     3.1130 c3         1 TDA      -0.082400
     10 C28          8.9050     0.0000     4.4370 c3         1 TDA      -0.082400
     11 C29         10.4090    -0.0000     4.1570 c3         1 TDA      -0.082400
     12 C30         11.1750     0.0000     5.4820 c3         1 TDA      -0.082400
     13 C31         12.6790    -0.0000     5.2020 c3         1 TDA      -0.082400
     14 C32         13.4440     0.0000     6.5260 c3         1 TDA      -0.084400
     15 C33         14.9490    -0.0000     6.2460 c3         1 TDA      -0.092100
     16 H222         1.8350    -0.8840     1.8730 hc         1 TDA       0.026700
     17 H221         1.8350     0.8840     1.8730 hc         1 TDA       0.026700
     18 H232         3.8620    -0.8840     0.4560 hc         1 TDA       0.044700
     19 H231         3.8620     0.8840     0.4560 hc         1 TDA       0.044700
     20 H242         4.1050     0.8840     2.9170 hc         1 TDA       0.028700
     21 H241         4.1050    -0.8840     2.9170 hc         1 TDA       0.028700
     22 H252         6.1310     0.8840     1.5010 hc         1 TDA       0.038700
     23 H251         6.1310    -0.8840     1.5010 hc         1 TDA       0.038700
     24 H262         6.3750     0.8850     3.9620 hc         1 TDA       0.035700
     25 H261         6.3750    -0.8850     3.9620 hc         1 TDA       0.035700
     26 H272         8.4000     0.8850     2.5450 hc         1 TDA       0.039700
     27 H271         8.4000    -0.8850     2.5450 hc         1 TDA       0.039700
     28 H282         8.6440    -0.8840     5.0060 hc         1 TDA       0.038700
     29 H281         8.6440     0.8840     5.0060 hc         1 TDA       0.038700
     30 H292        10.6700     0.8840     3.5890 hc         1 TDA       0.039700
     31 H291        10.6700    -0.8840     3.5890 hc         1 TDA       0.039700
     32 H302        10.9130    -0.8840     6.0500 hc         1 TDA       0.039700
     33 H301        10.9130     0.8840     6.0500 hc         1 TDA       0.039700
     34 H312        12.9400     0.8850     4.6330 hc         1 TDA       0.040700
     35 H311        12.9400    -0.8850     4.6330 hc         1 TDA       0.040700
     36 H322        13.1820     0.8840     7.0940 hc         1 TDA       0.038700
     37 H321        13.1820    -0.8840     7.0940 hc         1 TDA       0.038700
     38 H333        15.2100    -0.8850     5.6780 hc         1 TDA       0.030367
     39 H332        15.4900    -0.0000     7.1840 hc         1 TDA       0.030367
     40 H331        15.2100     0.8850     5.6780 hc         1 TDA       0.030367
@<TRIPOS>BOND
     1     1     3 1
     2     2     3 1
     3     3     4 1
     4     4     5 1
     5     4    16 1
     6     4    17 1
     7     5     6 1
     8     5    18 1
     9     5    19 1
    10     6     7 1
    11     6    20 1
    12     6    21 1
    13     7     8 1
    14     7    22 1
    15     7    23 1
    16     8     9 1
    17     8    24 1
    18     8    25 1
    19     9    10 1
    20     9    26 1
    21     9    27 1
    22    10    11 1
    23    10    28 1
    24    10    29 1
    25    11    12 1
    26    11    30 1
    27    11    31 1
    28    12    13 1
    29    12    32 1
    30    12    33 1
    31    13    14 1
    32    13    34 1
    33    13    35 1
    34    14    15 1
    35    14    36 1
    36    14    37 1
    37    15    38 1
    38    15    39 1
    39    15    40 1
@<TRIPOS>SUBSTRUCTURE
     1 TDA         1 TEMP              0 ****  ****    0 ROOT
