@<TRIPOS>MOLECULE
molecule
   54    57     1     0     0
SMALL
bcc


@<TRIPOS>ATOM
      1 O12          0.0000     0.0000     0.0000 o          1 TDC      -0.491100
      2 C12          1.2190     0.0000     0.0000 c          1 TDC       0.576700
      3 C1B          2.0140     0.2010    -1.2570 ca         1 TDC      -0.242600
      4 C11          1.3770     0.2940    -2.5020 ca         1 TDC       0.255100
      5 O11          0.1030     0.1330    -2.5890 oh         1 TDC      -0.473100
      6 C1A          2.1370     0.5770    -3.6460 ca         1 TDC      -0.112000
      7 C10          1.5030     0.6850    -4.8870 ca         1 TDC       0.176100
      8 O10          0.1520     0.5080    -4.9920 oh         1 TDC      -0.479100
      9 C9           2.2530     0.9650    -6.0220 ca         1 TDC      -0.232000
     10 C8           3.6370     1.1360    -5.9270 ca         1 TDC      -0.049000
     11 C7           4.2790     1.0170    -4.6940 ca         1 TDC      -0.177000
     12 C61          3.5180     0.7680    -3.5380 ca         1 TDC       0.040000
     13 C6           4.1530     0.6260    -2.2880 ca         1 TDC      -0.095300
     14 C62          5.6590     0.8090    -2.1890 c3         1 TDC      -0.045800
     15 C51          3.3910     0.3620    -1.1430 ca         1 TDC      -0.044300
     16 C5           4.0630     0.2240     0.2190 c3         1 TDC      -0.032100
     17 C1C          1.8960     0.0000     1.3550 c3         1 TDC      -0.008200
     18 C1           2.1030     1.3760     1.9680 c          1 TDC       0.573300
     19 O1           1.5650     2.3670     1.4280 o          1 TDC      -0.584100
     20 O1C          0.9890    -0.6760     2.2310 oh         1 TDC      -0.585800
     21 C41          3.2590    -0.6410     1.2020 c3         1 TDC      -0.080700
     22 C4           4.0000    -0.7340     2.5500 c3         1 TDC       0.142700
     23 N4           3.9900    -2.0960     3.1980 n3         1 TDC      -0.731600
     24 C43          2.6710    -2.5910     3.6510 c3         1 TDC       0.157600
     25 C42          4.6980    -3.0880     2.3530 c3         1 TDC       0.157600
     26 C3           3.5990     0.3630     3.5120 c2         1 TDC       0.429900
     27 O3           3.9770     0.2040     4.7070 oh         1 TDC      -0.461100
     28 C2           2.8820     1.4670     3.1090 ce         1 TDC      -0.453400
     29 C21          2.8980     2.6380     3.8320 c          1 TDC       0.543300
     30 O21          3.5810     2.7730     4.8520 o          1 TDC      -0.498100
     31 N21          2.2090     3.7200     3.4600 nz         1 TDC      -0.666400
     32 H11         -0.0930    -0.7870    -2.6620 ho         1 TDC       0.456000
     33 H10         -0.1340     0.7660    -5.8530 ho         1 TDC       0.434000
     34 H9           1.7620     1.0590    -6.9830 ha         1 TDC       0.146000
     35 H8           4.2150     1.3540    -6.8170 ha         1 TDC       0.146000
     36 H7           5.3520     1.1490    -4.6230 ha         1 TDC       0.146000
     37 H621         5.9210     1.1070    -1.1810 hc         1 TDC       0.048367
     38 H622         5.9760     1.5750    -2.8860 hc         1 TDC       0.048367
     39 H623         6.1520    -0.1250    -2.4300 hc         1 TDC       0.048367
     40 H5C1         4.1860     1.2120     0.6470 hc         1 TDC       0.056700
     41 H5C2         5.0390    -0.2250     0.0800 hc         1 TDC       0.056700
     42 H41          3.1420    -1.6350     0.7890 hc         1 TDC       0.108700
     43 H1C          0.1420    -0.2630     2.1860 ho         1 TDC       0.443000
     44 H4           5.0380    -0.5360     2.3130 h1         1 TDC       0.094700
     45 H431         2.0800    -2.8810     2.7910 h1         1 TDC       0.050033
     46 H432         2.1580    -1.8070     4.1940 h1         1 TDC       0.050033
     47 H433         2.8100    -3.4480     4.2990 h1         1 TDC       0.050033
     48 H421         4.0310    -3.4460     1.5790 h1         1 TDC       0.050033
     49 H422         5.5630    -2.6220     1.8970 h1         1 TDC       0.050033
     50 H423         5.0190    -3.9210     2.9670 h1         1 TDC       0.050033
     51 H3           4.8700     0.4930     4.7960 ho         1 TDC       0.511000
     52 H211         2.3070     4.4330     4.1550 hn         1 TDC       0.482133
     53 H212         1.2420     3.4820     3.3610 hn         1 TDC       0.482133
     54 H213         2.5610     4.0550     2.5850 hn         1 TDC       0.482133
@<TRIPOS>BOND
     1     1     2 2
     2     2     3 1
     3     2    17 1
     4     3     4 ar
     5     3    15 ar
     6     4     5 1
     7     4     6 ar
     8     6     7 ar
     9     6    12 ar
    10     7     8 1
    11     7     9 ar
    12     9    10 ar
    13    10    11 ar
    14    11    12 ar
    15    12    13 ar
    16    13    14 1
    17    13    15 ar
    18    15    16 1
    19    16    21 1
    20    17    18 1
    21    17    20 1
    22    17    21 1
    23    18    19 2
    24    18    28 1
    25    21    22 1
    26    22    23 1
    27    22    26 1
    28    23    24 1
    29    23    25 1
    30    26    27 1
    31    26    28 2
    32    28    29 1
    33    29    30 2
    34    29    31 1
    35     5    32 1
    36     8    33 1
    37     9    34 1
    38    10    35 1
    39    11    36 1
    40    14    37 1
    41    14    38 1
    42    14    39 1
    43    16    40 1
    44    16    41 1
    45    21    42 1
    46    20    43 1
    47    22    44 1
    48    24    45 1
    49    24    46 1
    50    24    47 1
    51    25    48 1
    52    25    49 1
    53    25    50 1
    54    27    51 1
    55    31    52 1
    56    31    53 1
    57    54    31 1
@<TRIPOS>SUBSTRUCTURE
     1 TDC         1 TEMP              0 ****  ****    0 ROOT
