@<TRIPOS>MOLECULE
TDE
   59    61     1     0     0
SMALL
bcc


@<TRIPOS>ATOM
      1 C2           0.0000     0.0000     0.0000 c2         1 TDE       0.210000
      2 O8          -0.6090    -0.9940    -0.3370 o          1 TDE      -0.387000
      3 C3           1.5150     0.0000     0.0000 c3         1 TDE      -0.064000
      4 C4           2.0030     0.0000     1.4500 c3         1 TDE      -0.104000
      5 C5           2.0580     1.4130     1.9990 c3         1 TDE      -0.148000
      6 C6           0.6970     2.0660     2.1470 c3         1 TDE       0.064000
      7 C7           0.0570     2.3100     0.7790 c3         1 TDE      -0.137000
      8 N1          -0.6680     1.0940     0.3750 ns         1 TDE       0.006000
      9 O7           0.8460     3.3160     2.8250 oh         1 TDE      -0.306000
     10 N9           2.0060     1.1970    -0.6850 ns         1 TDE      -0.066000
     11 C10          1.9920     1.2570    -2.0310 c2         1 TDE       0.188000
     12 C12          2.5000     2.4880    -2.7360 c3         1 TDE       0.016000
     13 O21          2.3810     2.3110    -4.1500 os         1 TDE      -0.226000
     14 C25          1.0900     2.7980    -4.5200 c3         1 TDE       0.040000
     15 C13          3.9660     2.7170    -2.3720 c3         1 TDE       0.066000
     16 O22          4.0850     2.8940    -0.9600 oh         1 TDE      -0.296000
     17 C14          4.4810     3.9670    -3.0880 c3         1 TDE       0.020000
     18 O23          3.7090     5.0980    -2.6830 oh         1 TDE      -0.277000
     19 C15          5.9500     4.1960    -2.7240 DU         1 TDE       0.144000
     20 O24          6.0680     4.3730    -1.3110 oh         1 TDE      -0.284000
     21 C16          6.4560     5.4270    -3.4290 c2         1 TDE      -0.241000
     22 C17          6.9110     6.4400    -2.7340 c2         1 TDE      -0.116000
     23 C18          7.4180     7.6710    -3.4390 DU         1 TDE       0.065000
     24 C21          6.5910     8.8830    -3.0060 c3         1 TDE      -0.132000
     25 C20          8.8860     7.9000    -3.0750 c3         1 TDE      -0.132000
     26 C19          7.2920     7.4810    -4.9510 c3         1 TDE      -0.132000
     27 O11          1.5710     0.3200    -2.6750 o          1 TDE      -0.369000
     28 H3           1.8760    -0.8880    -0.5040 h1         1 TDE       0.117000
     29 H41          1.3230    -0.5890     2.0540 hc         1 TDE       0.068500
     30 H42          2.9940    -0.4360     1.4910 hc         1 TDE       0.068500
     31 H51          2.5350     1.3870     2.9710 hc         1 TDE       0.074000
     32 H52          2.6590     2.0190     1.3300 hc         1 TDE       0.074000
     33 H6           0.0540     1.4160     2.7280 h1         1 TDE       0.047000
     34 H71         -0.6370     3.1400     0.8460 h1         1 TDE       0.086500
     35 H72          0.8280     2.5320     0.0520 h1         1 TDE       0.086500
     36 HN1         -1.6690     1.0870     0.3810 hn         1 TDE       0.098000
     37 HO7          0.3580     3.2960     3.6310 ho         1 TDE       0.192000
     38 HN9          2.4130     1.9430    -0.1570 hn         1 TDE       0.150000
     39 H12          1.9140     3.3470    -2.4300 h1         1 TDE       0.089000
     40 H251         0.4040     1.9660    -4.6170 h1         1 TDE       0.036333
     41 H252         1.1600     3.3210    -5.4660 h1         1 TDE       0.036333
     42 H253         0.7280     3.4780    -3.7580 h1         1 TDE       0.036333
     43 H13          4.5520     1.8590    -2.6780 h1         1 TDE       0.061000
     44 H22          4.8130     2.3860    -0.6400 ho         1 TDE       0.197000
     45 H14          4.3910     3.8330    -4.1590 h1         1 TDE       0.078000
     46 H23          3.2890     5.4780    -3.4370 ho         1 TDE       0.188000
     47 H15          6.5360     3.3380    -3.0300 ha         1 TDE       0.022000
     48 H24          6.9120     4.0650    -1.0250 ho         1 TDE       0.193000
     49 H16          5.4850     5.3500    -2.9550 DU         1 TDE       0.100000
     50 H17          6.2740     7.2070    -3.1590 DU         1 TDE       0.042000
     51 H211         5.6670     8.9100    -3.5710 hc         1 TDE       0.051111
     52 H212         6.3650     8.8080    -1.9490 hc         1 TDE       0.051111
     53 H213         7.1540     9.7890    -3.1910 hc         1 TDE       0.051111
     54 H201         8.9770     8.0250    -2.0030 hc         1 TDE       0.051111
     55 H202         9.2470     8.7910    -3.5740 hc         1 TDE       0.051111
     56 H203         9.4740     7.0460    -3.3890 hc         1 TDE       0.051111
     57 H191         7.8230     6.5840    -5.2480 hc         1 TDE       0.051111
     58 H192         7.7170     8.3370    -5.4590 hc         1 TDE       0.051111
     59 H193         6.2460     7.3860    -5.2170 hc         1 TDE       0.051111
@<TRIPOS>BOND
     1     1     2 1   
     2     1     3 1   
     3     1     8 1   
     4     3     4 1   
     5     3    10 1   
     6     3    28 1   
     7     4     5 1   
     8     4    29 1   
     9     4    30 1   
    10     5     6 1   
    11     5    31 1   
    12     5    32 1   
    13     6     7 1   
    14     6     9 1   
    15     6    33 1   
    16     7     8 1   
    17     7    34 1   
    18     7    35 1   
    19     8    36 1   
    20     9    37 1   
    21    10    11 1   
    22    10    38 1   
    23    11    12 1   
    24    11    27 1   
    25    12    13 1   
    26    12    15 1   
    27    12    39 1   
    28    13    14 1   
    29    14    40 1   
    30    14    41 1   
    31    14    42 1   
    32    15    16 1   
    33    15    17 1   
    34    15    43 1   
    35    16    44 1   
    36    17    18 1   
    37    17    19 1   
    38    17    45 1   
    39    18    46 1   
    40    19    20 1   
    41    19    21 1   
    42    19    47 1   
    43    19    49 1   
    44    20    48 1   
    45    21    22 1   
    46    21    49 1   
    47    22    23 1   
    48    22    50 1   
    49    23    24 1   
    50    23    25 1   
    51    23    26 1   
    52    23    50 1   
    53    24    51 1   
    54    24    52 1   
    55    24    53 1   
    56    25    54 1   
    57    25    55 1   
    58    25    56 1   
    59    26    57 1   
    60    26    58 1   
    61    26    59 1   
@<TRIPOS>SUBSTRUCTURE
     1 TDE         1 TEMP              0 ****  ****    0 ROOT
