@<TRIPOS>MOLECULE
molecule
   59    59     1     0     0
SMALL
bcc


@<TRIPOS>ATOM
      1 C2           0.0000     0.0000     0.0000 c          1 TDE       0.690500
      2 O8          -0.6090    -0.9940    -0.3370 o          1 TDE      -0.631500
      3 C3           1.5150     0.0000     0.0000 c3         1 TDE       0.047700
      4 C4           2.0030     0.0000     1.4500 c3         1 TDE      -0.088400
      5 C5           2.0580     1.4130     1.9990 c3         1 TDE      -0.100400
      6 C6           0.6970     2.0660     2.1470 c3         1 TDE       0.125100
      7 C7           0.0570     2.3100     0.7790 c3         1 TDE       0.069000
      8 N1          -0.6680     1.0940     0.3750 ns         1 TDE      -0.579900
      9 O7           0.8460     3.3160     2.8250 oh         1 TDE      -0.600800
     10 N9           2.0060     1.1970    -0.6850 ns         1 TDE      -0.597900
     11 C10          1.9920     1.2570    -2.0310 c          1 TDE       0.625100
     12 C12          2.5000     2.4880    -2.7360 c3         1 TDE       0.053100
     13 O21          2.3810     2.3110    -4.1500 os         1 TDE      -0.383600
     14 C25          1.0900     2.7980    -4.5200 c3         1 TDE       0.110700
     15 C13          3.9660     2.7170    -2.3720 c3         1 TDE       0.145100
     16 O22          4.0850     2.8940    -0.9600 oh         1 TDE      -0.583800
     17 C14          4.4810     3.9670    -3.0880 c3         1 TDE       0.140100
     18 O23          3.7090     5.0980    -2.6830 oh         1 TDE      -0.572800
     19 C15          5.9500     4.1960    -2.7240 c3         1 TDE       0.170300
     20 O24          6.0680     4.3730    -1.3110 oh         1 TDE      -0.578800
     21 C16          6.4560     5.4270    -3.4290 c2         1 TDE      -0.235200
     22 C17          6.9110     6.4400    -2.7340 c2         1 TDE      -0.123200
     23 C18          7.4180     7.6710    -3.4390 c3         1 TDE      -0.041800
     24 C21          6.5910     8.8830    -3.0060 c3         1 TDE      -0.079767
     25 C20          8.8860     7.9000    -3.0750 c3         1 TDE      -0.079767
     26 C19          7.2920     7.4810    -4.9510 c3         1 TDE      -0.079767
     27 O11          1.5710     0.3200    -2.6750 o          1 TDE      -0.577100
     28 H3           1.8760    -0.8880    -0.5040 h1         1 TDE       0.106700
     29 H41          1.3230    -0.5890     2.0540 hc         1 TDE       0.060200
     30 H42          2.9940    -0.4360     1.4910 hc         1 TDE       0.060200
     31 H51          2.6590     2.0190     1.3300 hc         1 TDE       0.058700
     32 H52          2.5350     1.3870     2.9710 hc         1 TDE       0.058700
     33 H6           0.0540     1.4160     2.7280 h1         1 TDE       0.041700
     34 H71          0.8280     2.5320     0.0520 h1         1 TDE       0.070700
     35 H72         -0.6370     3.1400     0.8460 h1         1 TDE       0.070700
     36 HN1         -1.6690     1.0870     0.3800 hn         1 TDE       0.326500
     37 HO7          0.2650     3.3420     3.5670 ho         1 TDE       0.405000
     38 HN9          2.4110     1.9450    -0.1560 hn         1 TDE       0.350500
     39 H12          1.9140     3.3470    -2.4300 h1         1 TDE       0.082700
     40 H251         0.7340     3.4880    -3.7640 h1         1 TDE       0.040033
     41 H252         1.1570     3.3100    -5.4730 h1         1 TDE       0.040033
     42 H253         0.4010     1.9670    -4.6040 h1         1 TDE       0.040033
     43 H13          4.5520     1.8590    -2.6780 h1         1 TDE       0.052700
     44 H22          4.8230     2.4000    -0.6420 ho         1 TDE       0.408000
     45 H14          4.3910     3.8330    -4.1590 h1         1 TDE       0.059700
     46 H23          3.3570     5.5270    -3.4450 ho         1 TDE       0.395000
     47 H15          6.5360     3.3380    -3.0300 h1         1 TDE       0.034700
     48 H24          6.8860     4.0080    -1.0160 ho         1 TDE       0.391000
     49 H16          6.4440     5.4750    -4.5110 ha         1 TDE       0.133000
     50 H17          6.9230     6.3920    -1.6520 ha         1 TDE       0.146000
     51 H211         6.6880     9.0230    -1.9360 hc         1 TDE       0.035922
     52 H212         5.5490     8.7170    -3.2550 hc         1 TDE       0.035922
     53 H213         6.9490     9.7670    -3.5200 hc         1 TDE       0.035922
     54 H201         9.2450     8.7950    -3.5680 hc         1 TDE       0.035922
     55 H202         9.4750     7.0500    -3.3970 hc         1 TDE       0.035922
     56 H203         8.9780     8.0170    -2.0020 hc         1 TDE       0.035922
     57 H191         6.2480     7.3600    -5.2140 hc         1 TDE       0.035922
     58 H192         7.8440     6.5980    -5.2510 hc         1 TDE       0.035922
     59 H193         7.6940     8.3490    -5.4590 hc         1 TDE       0.035922
@<TRIPOS>BOND
     1     1     2 2
     2     1     3 1
     3     1     8 1
     4     3     4 1
     5     3    10 1
     6     3    28 1
     7     4     5 1
     8     4    29 1
     9     4    30 1
    10     5     6 1
    11     5    31 1
    12     5    32 1
    13     6     7 1
    14     6     9 1
    15     6    33 1
    16     7     8 1
    17     7    34 1
    18     7    35 1
    19     8    36 1
    20     9    37 1
    21    10    11 1
    22    10    38 1
    23    11    12 1
    24    11    27 2
    25    12    13 1
    26    12    15 1
    27    12    39 1
    28    13    14 1
    29    14    40 1
    30    14    41 1
    31    14    42 1
    32    15    16 1
    33    15    17 1
    34    15    43 1
    35    16    44 1
    36    17    18 1
    37    17    19 1
    38    17    45 1
    39    18    46 1
    40    19    20 1
    41    19    21 1
    42    19    47 1
    43    20    48 1
    44    21    22 2
    45    21    49 1
    46    22    23 1
    47    22    50 1
    48    23    24 1
    49    23    25 1
    50    23    26 1
    51    24    51 1
    52    24    52 1
    53    24    53 1
    54    25    54 1
    55    25    55 1
    56    25    56 1
    57    26    57 1
    58    26    58 1
    59    26    59 1
@<TRIPOS>SUBSTRUCTURE
     1 TDE         1 TEMP              0 ****  ****    0 ROOT
