@<TRIPOS>MOLECULE
molecule
   30    32     1     0     0
SMALL
bcc


@<TRIPOS>ATOM
      1 CAC          0.0000     0.0000     0.0000 ca         1 TDH      -0.153500
      2 CAD         -0.0080    -0.0000     2.4070 ca         1 TDH      -0.153500
      3 CAE          2.6000     2.5520    -2.2300 ca         1 TDH      -0.147000
      4 CAF          4.2290     1.2070    -3.3780 ca         1 TDH      -0.147000
      5 CAG          1.3790     0.0000     0.0000 ca         1 TDH      -0.098000
      6 CAH          1.3710    -0.0000     2.4140 ca         1 TDH      -0.098000
      7 CAI          2.9790     1.9880    -1.0290 ca         1 TDH      -0.105500
      8 CAJ          4.6130     0.6460    -2.1770 ca         1 TDH      -0.105500
      9 CAK          4.3670    -0.4630     2.2060 cc         1 TDH       0.259200
     10 CAN         -0.6960    -0.0000     1.2010 ca         1 TDH       0.118100
     11 CAO          3.2220     2.1610    -3.4080 ca         1 TDH       0.113100
     12 CAP          2.0740     0.0000     1.2100 ca         1 TDH      -0.044000
     13 CAQ          3.9880     1.0330    -0.9990 ca         1 TDH      -0.004200
     14 CAR          3.5540    -0.0000     1.2150 cd         1 TDH      -0.122600
     15 NAL          5.6340    -0.2890     1.8400 nc         1 TDH      -0.336000
     16 NAM          5.6890     0.2510     0.6720 nd         1 TDH      -0.173800
     17 NAS          4.3780     0.4630     0.2230 na         1 TDH       0.136300
     18 OAA         -2.0540    -0.0000     1.1970 oh         1 TDH      -0.521100
     19 H1          -0.5410     0.0000    -0.9390 ha         1 TDH       0.147500
     20 H2          -0.5540    -0.0010     3.3420 ha         1 TDH       0.147500
     21 H3           1.8140     3.2970    -2.2540 ha         1 TDH       0.151500
     22 H4           4.7150     0.9040    -4.2970 ha         1 TDH       0.151500
     23 H5           1.9220     0.0000    -0.9380 ha         1 TDH       0.146500
     24 H6           1.9080    -0.0000     3.3550 ha         1 TDH       0.146500
     25 H7           2.4930     2.2920    -0.1100 ha         1 TDH       0.156500
     26 H8           5.3990    -0.0990    -2.1540 ha         1 TDH       0.156500
     27 H9           4.0360    -0.8960     3.1420 h4         1 TDH       0.051100
     28 H10         -2.3690    -0.8890     1.1960 ho         1 TDH       0.424000
     29 H11          3.3620     3.4830    -4.7590 ho         1 TDH       0.425000
     30 OAB          2.8440     2.7130    -4.5910 oh         1 TDH      -0.519100
@<TRIPOS>BOND
     1     1     5 ar
     2     1    10 ar
     3    18    10 1
     4     5    12 ar
     5    10     2 ar
     6    12    14 1
     7    12     6 ar
     8     2     6 ar
     9    14     9 2
    10    14    17 1
    11     9    15 1
    12    17    13 1
    13    17    16 1
    14    15    16 2
    15     8    13 ar
    16     8     4 ar
    17    13     7 ar
    18     4    11 ar
    19     7     3 ar
    20    11     3 ar
    21    11    30 1
    22     1    19 1
    23     2    20 1
    24     3    21 1
    25     4    22 1
    26     5    23 1
    27     6    24 1
    28     7    25 1
    29     8    26 1
    30     9    27 1
    31    18    28 1
    32    30    29 1
@<TRIPOS>SUBSTRUCTURE
     1 TDH         1 TEMP              0 ****  ****    0 ROOT
