@<TRIPOS>MOLECULE
TDH
   30    31     1     0     0
SMALL
bcc


@<TRIPOS>ATOM
      1 CAC        -0.6160   -0.6310    0.7040 c2        1 TDH     -0.217000
      2 CAD         3.1330   -0.7810    2.9370 c1        1 TDH     -0.143000
      3 CAE         3.5590    3.2700   -2.9740 c2        1 TDH     -0.268000
      4 CAF         4.8090   -0.5690   -1.9900 c1        1 TDH      0.211000
      5 CAG         0.7430   -0.3370    0.3300 c2        1 TDH     -0.047000
      6 CAH         2.0110   -1.2780    2.3580 c2        1 TDH     -0.036000
      7 CAI         3.4780    2.8120   -1.6120 c2        1 TDH     -0.078000
      8 CAJ         3.9980    0.4590   -2.1230 c2        1 TDH     -0.470000
      9 CAK         3.8790    0.0200    2.1590 c2        1 TDH     -0.062000
     10 CAN        -1.0480   -0.7010    1.9810 c2        1 TDH      0.002000
     11 CAO         4.4320    2.8130   -3.8940 c2        1 TDH      0.014000
     12 CAP         1.8370   -0.5480    1.0730 c2        1 TDH     -0.127000
     13 CAQ         3.6930    1.5380   -1.1860 c2        1 TDH      0.063000
     14 CAR         3.2730   -0.1330    0.6750 c3        1 TDH     -0.006000
     15 NAL         4.5700    1.2590    2.1840 n2        1 TDH     -0.038000
     16 NAM         4.3890    1.8670    1.1110 n2        1 TDH      0.084000
     17 NAS         3.5620    1.2320    0.2050 n3        1 TDH     -0.228000
     18 OAA        -2.3700   -0.9960    2.2070 oh        1 TDH     -0.253000
     19 H1         -1.3290   -0.7780   -0.1250 ha        1 TDH      0.152000
     20 H2         -0.4100   -0.5310    2.8630 h4        1 TDH      0.137000
     21 H3          2.8600    4.0860   -3.2300 ha        1 TDH      0.136000
     22 H4          5.2040    2.0410   -3.7280 h4        1 TDH      0.175000
     23 H5          0.8570    0.1100   -0.6760 ha        1 TDH      0.142000
     24 H6          1.3530   -2.0810    2.6860 ha        1 TDH      0.165000
     25 H7          3.2030    3.5980   -0.8830 ha        1 TDH      0.155000
     26 H8          3.4670    0.5580   -3.1000 ha        1 TDH      0.210000
     27 H9          3.7130   -0.9280    0.0200 h1        1 TDH      0.140000
     28 H10        -2.5280   -0.9160    3.1580 ho        1 TDH      0.221000
     29 H11         3.8510    3.9680   -5.3140 ho        1 TDH      0.218000
     30 OAB         4.5080    3.2680   -5.1800 oh        1 TDH     -0.252000
@<TRIPOS>BOND
     1    1    5 1   
     2    1   10 1   
     3    1   19 1   
     4    2    6 1   
     5    2    9 1   
     6    3    7 1   
     7    3   11 1   
     8    3   21 1   
     9    4    8 1   
    10    5   12 1   
    11    5   23 1   
    12    6   12 1   
    13    6   24 1   
    14    7   13 1   
    15    7   25 1   
    16    8   13 1   
    17    8   26 1   
    18    9   14 1   
    19    9   15 1   
    20   10   18 1   
    21   10   20 1   
    22   11   22 1   
    23   11   30 1   
    24   12   14 1   
    25   13   17 1   
    26   14   17 1   
    27   14   27 1   
    28   15   16 1   
    29   16   17 1   
    30   18   28 1   
    31   29   30 1   
@<TRIPOS>SUBSTRUCTURE
     1 TDH         1 TEMP              0 ****  ****    0 ROOT
