@<TRIPOS>MOLECULE
molecule
   39    41     1     0     0
SMALL
bcc


@<TRIPOS>ATOM
      1 C2           0.0000     0.0000     0.0000 ca         1 TDI       0.659900
      2 C4          -0.0950    -0.0070     2.2980 ca         1 TDI       0.455100
      3 C5           1.3110    -0.0000     2.3470 ca         1 TDI      -0.293800
      4 C6           2.0120     0.0000     1.1360 ca         1 TDI       0.708200
      5 CS5         -6.7290    -4.4170     6.9130 c3         1 TDI       0.001000
      6 S           -6.3140    -2.8260     6.1470 ss         1 TDI      -0.355200
      7 C5'         -5.2730    -3.3980     4.7760 c3         1 TDI       0.022700
      8 C4'         -4.7920    -2.1950     3.9640 c3         1 TDI      -0.071700
      9 C1'         -3.8140    -1.3450     4.7980 c3         1 TDI       0.129800
     10 N1'         -2.5120    -1.3650     4.0940 n3         1 TDI      -0.671600
     11 C9          -0.5440    -0.0010     3.6870 cc         1 TDI      -0.262000
     12 C8           0.5600    -0.0020     4.4580 cd         1 TDI      -0.068100
     13 N7           1.6750    -0.0010     3.6730 na         1 TDI      -0.162400
     14 N6           3.3970    -0.0000     1.1210 nv         1 TDI      -1.084500
     15 N1           1.3210     0.0000     0.0000 nb         1 TDI      -0.747000
     16 N3          -0.7040     0.0010     1.1100 nb         1 TDI      -0.712000
     17 C2'         -2.8290    -1.6240     2.6660 c3         1 TDI       0.112800
     18 C3'         -3.9770    -2.6650     2.7380 c3         1 TDI       0.138100
     19 O3'         -4.7700    -2.6260     1.5500 oh         1 TDI      -0.598800
     20 H2          -0.5220    -0.0000    -0.9490 h5         1 TDI       0.059100
     21 HS51        -5.8270    -4.8810     7.2930 h1         1 TDI       0.058700
     22 HS52        -7.1850    -5.0660     6.1740 h1         1 TDI       0.058700
     23 HS53        -7.4230    -4.2550     7.7290 h1         1 TDI       0.058700
     24 H5'1        -4.4180    -3.9330     5.1710 h1         1 TDI       0.061200
     25 H5'2        -5.8480    -4.0580     4.1380 h1         1 TDI       0.061200
     26 H4'         -5.6320    -1.5900     3.6440 hc         1 TDI       0.085700
     27 H1'1        -4.1780    -0.3270     4.8680 h1         1 TDI       0.054700
     28 H1'2        -3.7040    -1.7740     5.7860 h1         1 TDI       0.054700
     29 H101        -2.0100     0.3490     5.1900 h1         1 TDI       0.047200
     30 H102        -2.5640     0.6550     3.5380 h1         1 TDI       0.047200
     31 H8           0.5620    -0.0030     5.5410 h4         1 TDI       0.175000
     32 HN7          2.6170    -0.0010     4.0110 hn         1 TDI       0.303700
     33 HN61         3.8970    -0.8670     1.0960 hn         1 TDI       0.437800
     34 HN62         3.8970     0.8660     1.0970 hn         1 TDI       0.437800
     35 H2'1        -1.9690    -2.0410     2.1550 h1         1 TDI       0.067700
     36 H2'2        -3.1680    -0.7170     2.1810 h1         1 TDI       0.067700
     37 H3'         -3.5780    -3.6580     2.9060 h1         1 TDI       0.044700
     38 H1          -4.5260    -3.3400     0.9850 ho         1 TDI       0.403000
     39 C10         -1.9720    -0.0010     4.1650 c3         1 TDI       0.214000
@<TRIPOS>BOND
     1     1    15 ar
     2     1    16 ar
     3     1    20 1
     4     2     3 ar
     5     2    11 1
     6     2    16 ar
     7     3     4 ar
     8     3    13 1
     9     4    14 1
    10     4    15 ar
    11     5     6 1
    12     5    21 1
    13     5    22 1
    14     5    23 1
    15     6     7 1
    16     7     8 1
    17     7    24 1
    18     7    25 1
    19     8     9 1
    20     8    18 1
    21     8    26 1
    22     9    10 1
    23     9    27 1
    24     9    28 1
    25    10    39 1
    26    10    17 1
    27    39    11 1
    28    39    29 1
    29    39    30 1
    30    11    12 2
    31    12    13 1
    32    12    31 1
    33    13    32 1
    34    14    33 1
    35    14    34 1
    36    17    18 1
    37    17    35 1
    38    17    36 1
    39    18    19 1
    40    18    37 1
    41    19    38 1
@<TRIPOS>SUBSTRUCTURE
     1 TDI         1 TEMP              0 ****  ****    0 ROOT
