@<TRIPOS>MOLECULE
TDI
   39    41     1     0     0
SMALL
bcc


@<TRIPOS>ATOM
      1 C2           0.0000     0.0000     0.0000 ca         1 TDI       0.595900
      2 C4          -0.0950    -0.0070     2.2980 ca         1 TDI       0.404100
      3 C5           1.3110    -0.0000     2.3470 ca         1 TDI      -0.473800
      4 C6           2.0120     0.0000     1.1360 ca         1 TDI       0.537200
      5 CS5         -6.7290    -4.4170     6.9130 c3         1 TDI       0.112000
      6 S           -6.3140    -2.8260     6.1470 ss         1 TDI      -0.404200
      7 C5'         -5.2730    -3.3980     4.7760 c3         1 TDI       0.086700
      8 C4'         -4.7920    -2.1950     3.9640 c3         1 TDI      -0.051700
      9 C1'         -3.8140    -1.3450     4.7980 c3         1 TDI       0.134800
     10 N1'         -2.5120    -1.3650     4.0940 n3         1 TDI      -0.533600
     11 C9          -0.5440    -0.0010     3.6870 cc         1 TDI      -0.262000
     12 C8           0.5600    -0.0020     4.4580 cd         1 TDI      -0.244100
     13 N7           1.6750    -0.0010     3.6730 na         1 TDI       0.393600
     14 N6           3.3970    -0.0000     1.1210 nv         1 TDI      -0.657500
     15 N1           1.3210     0.0000     0.0000 nb         1 TDI      -0.629000
     16 N3          -0.7040     0.0010     1.1100 nb         1 TDI      -0.579000
     17 C2'         -2.8290    -1.6240     2.6660 c3         1 TDI       0.108800
     18 C3'         -3.9770    -2.6650     2.7380 c3         1 TDI       0.182100
     19 O3'         -4.7700    -2.6260     1.5500 oh         1 TDI      -0.577800
     20 H2          -0.5220    -0.0000    -0.9490 h5         1 TDI      -0.001900
     21 HS51        -5.8270    -4.8810     7.2930 h1         1 TDI       0.030700
     22 HS52        -7.1850    -5.0660     6.1740 h1         1 TDI       0.030700
     23 HS53        -7.4230    -4.2550     7.7290 h1         1 TDI       0.030700
     24 H5'1        -4.4180    -3.9330     5.1710 h1         1 TDI       0.038200
     25 H5'2        -5.8480    -4.0580     4.1380 h1         1 TDI       0.038200
     26 H4'         -5.6320    -1.5900     3.6440 hc         1 TDI       0.060700
     27 H1'1        -4.1780    -0.3270     4.8680 h1         1 TDI       0.029200
     28 H1'2        -3.7040    -1.7740     5.7860 h1         1 TDI       0.029200
     29 H101        -2.0100     0.3490     5.1900 h1         1 TDI       0.017200
     30 H102        -2.5640     0.6550     3.5380 h1         1 TDI       0.017200
     31 H8           0.5620    -0.0030     5.5410 h4         1 TDI       0.147000
     32 HN7          2.6170    -0.0010     4.0110 hn         1 TDI       0.117700
     33 HN61         3.8970    -0.8670     1.0960 hn         1 TDI       0.277800
     34 HN62         3.8970     0.8660     1.0970 hn         1 TDI       0.277800
     35 H2'1        -1.9690    -2.0410     2.1550 h1         1 TDI       0.039200
     36 H2'2        -3.1680    -0.7170     2.1810 h1         1 TDI       0.039200
     37 H3'         -3.5780    -3.6580     2.9060 h1         1 TDI       0.011700
     38 H1          -4.5260    -3.3400     0.9850 ho         1 TDI       0.389000
     39 C10         -1.9720    -0.0010     4.1650 c3         1 TDI       0.238000
@<TRIPOS>BOND
     1     1    15 ar  
     2     1    16 ar  
     3     1    20 1   
     4     2     3 ar  
     5     2    11 1   
     6     2    16 ar  
     7     3     4 ar  
     8     3    13 1   
     9     4    14 1   
    10     4    15 ar  
    11     5     6 1   
    12     5    21 1   
    13     5    22 1   
    14     5    23 1   
    15     6     7 1   
    16     7     8 1   
    17     7    24 1   
    18     7    25 1   
    19     8     9 1   
    20     8    18 1   
    21     8    26 1   
    22     9    10 1   
    23     9    27 1   
    24     9    28 1   
    25    10    17 1   
    26    10    39 1   
    27    11    12 2   
    28    11    39 1   
    29    12    13 1   
    30    12    31 1   
    31    13    32 1   
    32    14    33 1   
    33    14    34 1   
    34    17    18 1   
    35    17    35 1   
    36    17    36 1   
    37    18    19 1   
    38    18    37 1   
    39    19    38 1   
    40    29    39 1   
    41    30    39 1   
@<TRIPOS>SUBSTRUCTURE
     1 TDI         1 TEMP              0 ****  ****    0 ROOT
