@<TRIPOS>MOLECULE
molecule
   56    57     1     0     0
SMALL
bcc


@<TRIPOS>ATOM
      1 O2B          0.0000     0.0000     0.0000 o          1 TDK      -0.810833
      2 PB           1.6100     0.0000     0.0000 p5         1 TDK       1.317900
      3 O3B          2.1470     0.0000     1.5170 o          1 TDK      -0.810833
      4 O1B          2.1030    -1.2090    -0.6970 o          1 TDK      -0.810833
      5 O3A          2.1470     1.3140    -0.7600 os         1 TDK      -0.716800
      6 PA           2.2370     1.7540    -2.3060 p5         1 TDK       1.431800
      7 O1A          0.9620     1.4310    -2.9860 o          1 TDK      -0.853500
      8 O2A          3.4420     0.9590    -3.0210 o          1 TDK      -0.853500
      9 O7           2.5100     3.3370    -2.3990 os         1 TDK      -0.603200
     10 C7           2.5390     4.0510    -3.6360 c3         1 TDK       0.237400
     11 C6           2.8210     5.5300    -3.3660 c3         1 TDK      -0.014100
     12 C5           2.8510     6.2820    -4.6710 cc         1 TDK      -0.099400
     13 S1           4.2710     6.5530    -5.6800 ss         1 TDK       0.202200
     14 C4           1.8050     6.8580    -5.2710 cd         1 TDK      -0.116600
     15 CM4          0.4140     6.8240    -4.6930 c3         1 TDK      -0.031800
     16 N3           2.0890     7.4580    -6.4100 na         1 TDK       0.059900
     17 C2           3.3170     7.4190    -6.8040 cc         1 TDK      -0.137700
     18 CMA          3.8350     8.0420    -8.0740 c3         1 TDK       0.067900
     19 OM1          3.3330     9.3750    -8.1900 oh         1 TDK      -0.589800
     20 CMB          3.3690     7.2160    -9.2750 c3         1 TDK      -0.078100
     21 PC           5.6570     8.0800    -8.0330 p5         1 TDK       1.124600
     22 OM3          6.2200     6.5950    -7.7720 o          1 TDK      -0.775000
     23 OM2          6.2150     8.6240    -9.4430 os         1 TDK      -0.611200
     24 CMC          7.6010     8.8690    -9.6900 c3         1 TDK       0.219700
     25 OM4          6.1080     8.9760    -6.9460 o          1 TDK      -0.775000
     26 C7'          1.0560     8.1380    -7.1940 c3         1 TDK       0.086600
     27 C5'          1.0830     9.6140    -6.8900 ca         1 TDK      -0.389900
     28 C6'          0.8120    10.0780    -5.6180 ca         1 TDK       0.485200
     29 N1'          0.8450    11.3830    -5.3860 nb         1 TDK      -0.777000
     30 C2'          1.1320    12.2370    -6.3480 ca         1 TDK       0.697300
     31 CM2          1.1580    13.7110    -6.0350 c3         1 TDK      -0.117400
     32 N3'          1.3980    11.8380    -7.5750 nb         1 TDK      -0.816000
     33 C4'          1.3890    10.5440    -7.8840 ca         1 TDK       0.773200
     34 N4'          1.6740    10.1270    -9.1750 nv         1 TDK      -1.002500
     35 H71          1.5810     3.9500    -4.1330 h1         1 TDK       0.025700
     36 H72          3.3180     3.6440    -4.2700 h1         1 TDK       0.025700
     37 H61          2.0410     5.9360    -2.7330 hc         1 TDK       0.057200
     38 H62          3.7780     5.6300    -2.8690 hc         1 TDK       0.057200
     39 HM41        -0.1990     7.5720    -5.1820 hc         1 TDK       0.055367
     40 HM42         0.4590     7.0330    -3.6310 hc         1 TDK       0.055367
     41 HM43        -0.0190     5.8440    -4.8510 hc         1 TDK       0.055367
     42 HM1          4.0320     9.9890    -8.0360 ho         1 TDK       0.392000
     43 HMB1         4.1750     6.5730    -9.6060 hc         1 TDK       0.039033
     44 HMB2         2.5180     6.6100    -8.9880 hc         1 TDK       0.039033
     45 HMB3         3.0830     7.8810   -10.0810 hc         1 TDK       0.039033
     46 HMC1         7.7590     9.0120   -10.7520 h1         1 TDK       0.015700
     47 HMC2         7.9110     9.7580    -9.1550 h1         1 TDK       0.015700
     48 HMC3         8.1830     8.0210    -9.3490 h1         1 TDK       0.015700
     49 H7'1         1.2440     7.9840    -8.2500 h1         1 TDK       0.071700
     50 H7'2         0.0840     7.7340    -6.9380 h1         1 TDK       0.071700
     51 H6'          0.5740     9.3860    -4.8200 h4         1 TDK       0.037100
     52 HM21         0.4560    13.9240    -5.2380 hc         1 TDK       0.047700
     53 HM22         0.8810    14.2730    -6.9190 hc         1 TDK       0.047700
     54 HM23         2.1550    13.9970    -5.7230 hc         1 TDK       0.047700
     55 H4'1         1.0600     9.4880    -9.6400 hn         1 TDK       0.436300
     56 H4'2         2.4470    10.5250    -9.6690 hn         1 TDK       0.436300
@<TRIPOS>BOND
     1     1     2 1
     2     2     3 1
     3     2     4 1
     4     2     5 1
     5     5     6 1
     6     6     7 1
     7     6     8 1
     8     6     9 1
     9     9    10 1
    10    10    11 1
    11    10    35 1
    12    10    36 1
    13    11    12 1
    14    11    37 1
    15    11    38 1
    16    12    13 1
    17    12    14 2
    18    13    17 1
    19    14    15 1
    20    14    16 1
    21    15    39 1
    22    15    40 1
    23    15    41 1
    24    16    17 2
    25    16    26 1
    26    17    18 1
    27    18    19 1
    28    18    20 1
    29    18    21 1
    30    19    42 1
    31    20    43 1
    32    20    44 1
    33    20    45 1
    34    21    22 1
    35    21    23 1
    36    21    25 1
    37    23    24 1
    38    24    46 1
    39    24    47 1
    40    24    48 1
    41    26    27 1
    42    26    49 1
    43    26    50 1
    44    27    28 ar
    45    27    33 ar
    46    28    29 ar
    47    28    51 1
    48    29    30 ar
    49    30    31 1
    50    30    32 ar
    51    31    52 1
    52    31    53 1
    53    31    54 1
    54    32    33 ar
    55    33    34 1
    56    34    55 1
    57    34    56 1
@<TRIPOS>SUBSTRUCTURE
     1 TDK         1 TEMP              0 ****  ****    0 ROOT
