@<TRIPOS>MOLECULE
molecule
   48    49     1     0     0
SMALL
bcc


@<TRIPOS>ATOM
      1 O1A          0.0000     0.0000     0.0000 o          1 TDM      -0.791000
      2 PA           1.4800     0.0000     0.0000 p5         1 TDM       1.248800
      3 O2A          2.0160     0.0000     1.5190 o          1 TDM      -0.791000
      4 O3A          2.0160     1.3150    -0.7580 os         1 TDM      -0.644800
      5 PB           1.1440     2.5540    -0.2150 p5         1 TDM       1.179900
      6 O2B          1.7130     3.0270     1.2140 o          1 TDM      -0.821500
      7 O3B          1.2370     3.7750    -1.2600 o          1 TDM      -0.821500
      8 O1B         -0.2690     2.1370    -0.0690 o          1 TDM      -0.821500
      9 O7           2.0180    -1.3140    -0.7590 os         1 TDM      -0.554200
     10 C7           1.4160    -2.4390    -0.1140 c3         1 TDM       0.163400
     11 C6           1.8880    -3.7270    -0.7910 c3         1 TDM      -0.000200
     12 C5           1.2530    -4.9120    -0.1120 cc         1 TDM      -0.025600
     13 S1           1.7960    -5.7860     1.3470 ss         1 TDM      -0.227200
     14 C2           0.4850    -6.9980     1.4150 cc         1 TDM       0.269600
     15 C27          0.2870    -7.9830     2.2930 c2         1 TDM      -0.167100
     16 C29          1.3380    -8.2900     3.3300 c3         1 TDM      -0.029900
     17 O28         -0.8660    -8.7130     2.2540 oh         1 TDM      -0.521100
     18 N3          -0.2770    -6.6400     0.2940 na         1 TDM      -0.535200
     19 C4           0.1470    -5.5700    -0.4480 cd         1 TDM       0.060800
     20 CM4         -0.6400    -5.1420    -1.6600 c3         1 TDM      -0.037900
     21 C7'         -1.4920    -7.3760    -0.0620 c3         1 TDM       0.284100
     22 C5'         -1.2670    -8.1200    -1.3540 ca         1 TDM      -0.472900
     23 C4'         -0.3200    -9.1430    -1.4350 ca         1 TDM       0.745200
     24 N4'          0.4310    -9.4960    -0.3250 nv         1 TDM      -1.015500
     25 N3'         -0.1560    -9.7780    -2.5910 nb         1 TDM      -0.842000
     26 C2'         -0.8690    -9.4440    -3.6490 ca         1 TDM       0.626300
     27 CM2         -0.6500   -10.1850    -4.9430 c3         1 TDM      -0.100400
     28 N1'         -1.7670    -8.4810    -3.6050 nb         1 TDM      -0.779000
     29 C6'         -1.9900    -7.8050    -2.4880 ca         1 TDM       0.442200
     30 H71          0.3380    -2.3650    -0.1900 h1         1 TDM       0.054700
     31 H72          1.7040    -2.4530     0.9300 h1         1 TDM       0.054700
     32 H61          2.9660    -3.8020    -0.7140 hc         1 TDM       0.049700
     33 H62          1.6010    -3.7130    -1.8360 hc         1 TDM       0.049700
     34 H291         2.3200    -8.0910     2.9180 hc         1 TDM       0.031033
     35 H292         1.1780    -7.6680     4.2020 hc         1 TDM       0.031033
     36 H293         1.2710    -9.3340     3.6140 hc         1 TDM       0.031033
     37 H28         -1.2180    -8.7910     3.1250 ho         1 TDM       0.390000
     38 HM41        -0.3250    -5.7220    -2.5190 hc         1 TDM       0.054700
     39 HM42        -1.6960    -5.3060    -1.4810 hc         1 TDM       0.054700
     40 HM43        -0.4650    -4.0900    -1.8510 hc         1 TDM       0.054700
     41 H7'1        -1.7310    -8.0820     0.7240 h1         1 TDM       0.063700
     42 H7'2        -2.3130    -6.6800    -0.1850 h1         1 TDM       0.063700
     43 H4'1         0.1220    -9.2340     0.5900 hn         1 TDM       0.442300
     44 H4'2         1.2440   -10.0680    -0.4340 hn         1 TDM       0.442300
     45 HM21         0.3940   -10.4620    -5.0280 hc         1 TDM       0.033033
     46 HM22        -0.9230    -9.5470    -5.7740 hc         1 TDM       0.033033
     47 HM23        -1.2630   -11.0780    -4.9560 hc         1 TDM       0.033033
     48 H6'         -2.7310    -7.0150    -2.4640 h4         1 TDM       0.012100
@<TRIPOS>BOND
     1     1     2 1
     2     2     3 1
     3     2     4 1
     4     2     9 1
     5     4     5 1
     6     5     6 1
     7     5     7 1
     8     5     8 1
     9     9    10 1
    10    10    11 1
    11    10    30 1
    12    10    31 1
    13    11    12 1
    14    11    32 1
    15    11    33 1
    16    12    13 1
    17    12    19 2
    18    13    14 1
    19    14    15 2
    20    14    18 1
    21    15    16 1
    22    15    17 1
    23    16    34 1
    24    16    35 1
    25    16    36 1
    26    17    37 1
    27    18    19 1
    28    18    21 1
    29    19    20 1
    30    20    38 1
    31    20    39 1
    32    20    40 1
    33    21    22 1
    34    21    41 1
    35    21    42 1
    36    22    23 ar
    37    22    29 ar
    38    23    24 1
    39    23    25 ar
    40    24    43 1
    41    24    44 1
    42    25    26 ar
    43    26    27 1
    44    26    28 ar
    45    27    45 1
    46    27    46 1
    47    27    47 1
    48    28    29 ar
    49    29    48 1
@<TRIPOS>SUBSTRUCTURE
     1 TDM         1 TEMP              0 ****  ****    0 ROOT
