@<TRIPOS>MOLECULE
molecule
   51    52     1     0     0
SMALL
bcc


@<TRIPOS>ATOM
      1 O2B          0.0000     0.0000     0.0000 o          1 TDN      -0.882167
      2 PB           1.6100     0.0000     0.0000 p5         1 TDN       1.309900
      3 O3B          2.1470     0.0000     1.5180 o          1 TDN      -0.882167
      4 O1B          2.1030    -1.2080    -0.6990 o          1 TDN      -0.882167
      5 O3A          2.1470     1.3140    -0.7590 os         1 TDN      -0.714800
      6 PA           3.5460     1.7150    -1.4490 p5         1 TDN       1.423800
      7 O1A          4.0260     0.5890    -2.2800 o          1 TDN      -0.857000
      8 O2A          4.6330     2.0410    -0.3070 o          1 TDN      -0.857000
      9 O7           3.3350     3.0150    -2.3760 os         1 TDN      -0.601200
     10 C7           4.3650     3.5560    -3.2050 c3         1 TDN       0.235400
     11 C6           3.8320     4.7820    -3.9470 c3         1 TDN      -0.013200
     12 C5           4.9190     5.3520    -4.8200 cc         1 TDN      -0.034600
     13 C4           5.1290     5.1160    -6.1050 cd         1 TDN       0.056800
     14 CM4          4.2260     4.1800    -6.8660 c3         1 TDN      -0.037900
     15 S1           6.1960     6.4970    -4.3540 ss         1 TDN      -0.210200
     16 C2           6.9610     6.5850    -5.9560 cc         1 TDN       0.261600
     17 C27          8.0270     7.2990    -6.3270 c2         1 TDN      -0.154100
     18 O28          8.5520     7.1430    -7.5770 oh         1 TDN      -0.524100
     19 C29          8.6510     8.2760    -5.3640 c3         1 TDN      -0.024200
     20 C30          9.8130     7.6000    -4.6340 c3         1 TDN      -0.097100
     21 N3           6.1780     5.7320    -6.7350 na         1 TDN      -0.534200
     22 C7'          6.4610     5.5090    -8.1550 c3         1 TDN       0.288100
     23 C5'          5.3690     6.1280    -8.9880 ca         1 TDN      -0.451900
     24 C6'          4.4600     5.3390    -9.6650 ca         1 TDN       0.460200
     25 N1'          3.5130     5.9180   -10.3880 nb         1 TDN      -0.778000
     26 C2'          3.4280     7.2300   -10.4700 ca         1 TDN       0.652300
     27 CM2          2.3370     7.8430   -11.3120 c3         1 TDN      -0.106400
     28 N3'          4.2730     8.0220    -9.8430 nb         1 TDN      -0.828000
     29 C4'          5.2470     7.5160    -9.0920 ca         1 TDN       0.743200
     30 N4'          6.1340     8.3510    -8.4320 nv         1 TDN      -1.023500
     31 H4           4.6810     2.8090    -3.9220 h1         1 TDN       0.022700
     32 H5           5.2090     3.8450    -2.5890 h1         1 TDN       0.022700
     33 H6           3.5160     5.5290    -3.2290 hc         1 TDN       0.057200
     34 H7           2.9880     4.4930    -4.5620 hc         1 TDN       0.057200
     35 H8           3.4120     4.7430    -7.3070 hc         1 TDN       0.055033
     36 H9           4.7910     3.6900    -7.6490 hc         1 TDN       0.055033
     37 H10          3.8250     3.4350    -6.1890 hc         1 TDN       0.055033
     38 H12          9.4920     7.1910    -7.5320 ho         1 TDN       0.395000
     39 H13          9.0200     9.1360    -5.9110 hc         1 TDN       0.042200
     40 H14          7.9090     8.5980    -4.6430 hc         1 TDN       0.042200
     41 H15          9.9760     8.0910    -3.6820 hc         1 TDN       0.032700
     42 H16         10.7110     7.6740    -5.2360 hc         1 TDN       0.032700
     43 H17          9.5760     6.5570    -4.4660 hc         1 TDN       0.032700
     44 H18          7.4110     5.9640    -8.4090 h1         1 TDN       0.065200
     45 H19          6.5060     4.4450    -8.3510 h1         1 TDN       0.065200
     46 H20          4.5200     4.2590    -9.6050 h4         1 TDN       0.020100
     47 H21          2.6440     8.8300   -11.6380 hc         1 TDN       0.039367
     48 H22          1.4300     7.9230   -10.7250 hc         1 TDN       0.039367
     49 H23          2.1530     7.2180   -12.1770 hc         1 TDN       0.039367
     50 H24          7.0810     8.0600    -8.2860 hn         1 TDN       0.444300
     51 H25          5.8400     9.2610    -8.1380 hn         1 TDN       0.444300
@<TRIPOS>BOND
     1    27    26 1
     2     8     6 1
     3    26    28 ar
     4    26    25 ar
     5    28    29 ar
     6    25    24 ar
     7     6     7 1
     8     6     5 1
     9     6     9 1
    10    29    30 1
    11    29    23 ar
    12     5     2 1
    13     1     2 1
    14    24    23 ar
    15    23    22 1
    16     9    10 1
    17    10    11 1
    18    14    13 1
    19     2     3 1
    20     2     4 1
    21    11    12 1
    22    13    12 2
    23    13    21 1
    24    12    15 1
    25    21    22 1
    26    21    16 1
    27    15    16 1
    28    16    17 2
    29    20    19 1
    30    17    18 1
    31    17    19 1
    32    10    31 1
    33    10    32 1
    34    11    33 1
    35    11    34 1
    36    14    35 1
    37    14    36 1
    38    14    37 1
    39    18    38 1
    40    19    39 1
    41    19    40 1
    42    20    41 1
    43    20    42 1
    44    20    43 1
    45    22    44 1
    46    22    45 1
    47    24    46 1
    48    27    47 1
    49    27    48 1
    50    27    49 1
    51    30    50 1
    52    30    51 1
@<TRIPOS>SUBSTRUCTURE
     1 TDN         1 TEMP              0 ****  ****    0 ROOT
