@<TRIPOS>MOLECULE
molecule
   42    43     1     0     0
SMALL
bcc


@<TRIPOS>ATOM
      1 N1'          0.0000     0.0000     0.0000 nb         1 TDP      -0.780000
      2 C2'          1.3890     0.0000     0.0000 ca         1 TDP       0.709300
      3 C2A          2.1700     0.0020    -1.2830 c3         1 TDP      -0.121400
      4 N3'          2.0770     0.0000     1.1360 nb         1 TDP      -0.814000
      5 C4'          1.4120     0.0020     2.3590 ca         1 TDP       0.744200
      6 N4'          2.1900     0.0000     3.4380 nv         1 TDP      -0.954500
      7 C5'         -0.0290     0.0050     2.4120 ca         1 TDP      -0.437900
      8 C6'         -0.6600     0.0030     1.2060 ca         1 TDP       0.490200
      9 C35         -0.7990     0.0020     3.7280 c3         1 TDP       0.134600
     10 N3          -0.6560    -1.3680     4.4120 na         1 TDP      -0.019100
     11 C2           0.2550    -1.5110     5.3660 cc         1 TDP      -0.351400
     12 S1           0.3580    -3.0300     6.0390 ss         1 TDP       0.155200
     13 C5          -0.8960    -3.5850     5.0100 cc         1 TDP      -0.068400
     14 C4          -1.3450    -2.5610     4.1840 cd         1 TDP      -0.072600
     15 C4A         -2.4230    -2.7190     3.1740 c3         1 TDP      -0.017800
     16 C5A         -1.3200    -5.0040     5.1090 c3         1 TDP      -0.054100
     17 C5B         -0.4760    -5.9640     4.3000 c3         1 TDP       0.309400
     18 O5G         -0.6610    -7.2760     4.7210 os         1 TDP      -0.630200
     19 P1           0.1420    -8.6300     4.5390 p5         1 TDP       1.587800
     20 O11          1.0790    -8.5660     5.7760 os         1 TDP      -0.739800
     21 O12         -0.7470    -9.7780     4.6040 o          1 TDP      -0.895500
     22 O13          1.0040    -8.4500     3.3440 o          1 TDP      -0.895500
     23 P2           0.8310    -8.6350     7.3610 p5         1 TDP       1.404900
     24 O21          2.1130    -9.2370     7.9510 o          1 TDP      -0.778833
     25 O22          0.3040    -7.3360     7.7570 o          1 TDP      -0.778833
     26 O23         -0.2560    -9.6840     7.4590 o          1 TDP      -0.778833
     27 H2A1         2.1520    -0.9900    -1.7170 hc         1 TDP       0.058033
     28 H2A2         3.1940     0.2900    -1.0810 hc         1 TDP       0.058033
     29 H2A3         1.7260     0.7070    -1.9750 hc         1 TDP       0.058033
     30 H4'1         1.8540     0.3900     4.2970 hn         1 TDP       0.449800
     31 H4'2         3.1340    -0.3250     3.3730 hn         1 TDP       0.449800
     32 H6'         -1.7440     0.0040     1.1960 h4         1 TDP       0.014100
     33 H351        -1.8470     0.1980     3.5320 h1         1 TDP       0.057700
     34 H352        -0.4040     0.7730     4.3780 h1         1 TDP       0.057700
     35 H2           0.8890    -0.6930     5.6860 h5         1 TDP       0.152000
     36 H4A1        -3.1470    -3.4430     3.5290 hc         1 TDP       0.050700
     37 H4A2        -2.9130    -1.7660     3.0170 hc         1 TDP       0.050700
     38 H4A3        -1.9950    -3.0640     2.2410 hc         1 TDP       0.050700
     39 H5A1        -1.2770    -5.3030     6.1490 hc         1 TDP       0.078700
     40 H5A2        -2.3460    -5.0810     4.7700 hc         1 TDP       0.078700
     41 H5B1        -0.7530    -5.8850     3.2550 h1         1 TDP      -0.006300
     42 H5B2         0.5680    -5.6990     4.4110 h1         1 TDP      -0.006300
@<TRIPOS>BOND
     1     1     2 ar
     2     1     8 ar
     3     2     3 1
     4     2     4 ar
     5     3    27 1
     6     3    28 1
     7     3    29 1
     8     4     5 ar
     9     5     6 1
    10     5     7 ar
    11     6    30 1
    12     6    31 1
    13     7     8 ar
    14     7     9 1
    15     8    32 1
    16     9    10 1
    17     9    33 1
    18     9    34 1
    19    10    11 2
    20    10    14 1
    21    11    12 1
    22    11    35 1
    23    12    13 1
    24    13    14 2
    25    13    16 1
    26    14    15 1
    27    15    36 1
    28    15    37 1
    29    15    38 1
    30    16    17 1
    31    16    39 1
    32    16    40 1
    33    17    18 1
    34    17    41 1
    35    17    42 1
    36    18    19 1
    37    19    20 1
    38    19    21 1
    39    19    22 1
    40    20    23 1
    41    23    24 1
    42    23    25 1
    43    23    26 1
@<TRIPOS>SUBSTRUCTURE
     1 TDP         1 TEMP              0 ****  ****    0 ROOT
