@<TRIPOS>MOLECULE
TDR
   15    15     1     0     0
SMALL
bcc


@<TRIPOS>ATOM
      1 N1           0.0000     0.0000     0.0000 ns         1 TDR       0.019900
      2 C2           1.3440     0.0000     0.0000 c          1 TDR       0.570500
      3 O2           1.9440    -0.0010    -1.0580 o          1 TDR      -0.703500
      4 N3           2.0360     0.0000     1.1550 ns         1 TDR      -0.122500
      5 C4           1.3870     0.0050     2.3350 c          1 TDR       0.618700
      6 O4           2.0110     0.0060     3.3800 o          1 TDR      -0.655500
      7 C5          -0.0290     0.0010     2.3490 cc         1 TDR      -0.274400
      8 CM5         -0.7790     0.0020     3.6560 c3         1 TDR       0.102100
      9 C6          -0.6970     0.0000     1.1760 cd         1 TDR      -0.117400
     10 HN1         -0.4960    -0.0010    -0.8700 hn         1 TDR       0.189500
     11 HN3          3.0370    -0.0000     1.1360 hn         1 TDR       0.207500
     12 H5M1        -0.5120    -0.8790     4.2270 hc         1 TDR       0.011033
     13 H5M2        -1.8440    -0.0030     3.4610 hc         1 TDR       0.011033
     14 H5M3        -0.5200     0.8900     4.2210 hc         1 TDR       0.011033
     15 H6          -1.7800    -0.0020     1.1670 h4         1 TDR       0.134000
@<TRIPOS>BOND
     1     1     2 1   
     2     1     9 1   
     3     1    10 1   
     4     2     3 2   
     5     2     4 1   
     6     4     5 1   
     7     4    11 1   
     8     5     6 2   
     9     5     7 1   
    10     7     8 1   
    11     7     9 2   
    12     8    12 1   
    13     8    13 1   
    14     8    14 1   
    15     9    15 1   
@<TRIPOS>SUBSTRUCTURE
     1 TDR         1 TEMP              0 ****  ****    0 ROOT
