@<TRIPOS>MOLECULE
TDS
   68    69     1     0     0
SMALL
bcc


@<TRIPOS>ATOM
      1 CBC        -0.0020   -0.1880    0.0040 c3        1 TDS     -0.092100
      2 CBB         1.5000   -0.0680    0.0270 c3        1 TDS     -0.080400
      3 CBA         2.0410   -0.1400    1.4390 c3        1 TDS     -0.079400
      4 CAZ         3.5500   -0.0200    1.4570 c3        1 TDS     -0.079400
      5 CAY         4.0900   -0.0920    2.8690 c3        1 TDS     -0.079400
      6 CAX         5.5990    0.0280    2.8870 c3        1 TDS     -0.079400
      7 CAW         6.1390   -0.0440    4.3000 c3        1 TDS     -0.079400
      8 CAV         7.6480    0.0750    4.3180 c3        1 TDS     -0.079400
      9 CAU         8.1870    0.0050    5.7300 c3        1 TDS     -0.079400
     10 CAT         9.6960    0.1250    5.7480 c3        1 TDS     -0.079400
     11 CAS        10.2350    0.0560    7.1610 c3        1 TDS     -0.079400
     12 CAR        11.7440    0.1770    7.1750 c3        1 TDS     -0.077400
     13 CAQ        12.2750    0.1130    8.5940 c3        1 TDS     -0.042200
     14 CAP        13.7630    0.2300    8.6230 cc        1 TDS      0.118900
     15 OAO        14.3320   -1.0310    8.5560 os        1 TDS     -0.196200
     16 CAH        14.4740    1.3790    8.7150 cd        1 TDS     -0.259400
     17 CAI        13.8030    2.6980    8.7980 c3        1 TDS     -0.041900
     18 CAG        15.9470    1.3620    8.7430 c         1 TDS      0.599900
     19 OAC        16.6200    2.3980    8.8260 o         1 TDS     -0.528100
     20 CAF        16.5420    0.0200    8.6630 ca        1 TDS     -0.244600
     21 CAN        15.7110   -1.1070    8.5720 ca        1 TDS      0.172100
     22 CAM        16.2390   -2.4130    8.4920 ca        1 TDS      0.038100
     23 OBD        15.3480   -3.4570    8.3930 oh        1 TDS     -0.476100
     24 CAL        17.6370   -2.5750    8.5050 ca        1 TDS      0.128100
     25 OAK        18.0610   -3.8880    8.4200 os        1 TDS     -0.340900
     26 CAJ        19.4670   -4.1040    8.4840 c3        1 TDS      0.120700
     27 CAD        18.4910   -1.4710    8.5970 ca        1 TDS     -0.286000
     28 CAE        17.9440   -0.1860    8.6740 ca        1 TDS      0.208100
     29 OAB        18.7020    0.9560    8.7660 os        1 TDS     -0.279900
     30 CAA        20.1160    0.7870    8.7740 c3        1 TDS      0.106700
     31 HBC1       -0.4730    0.6370    0.5920 hc        1 TDS      0.032700
     32 HBC2       -0.3800   -0.1320   -1.0460 hc        1 TDS      0.032700
     33 HBC3       -0.3270   -1.1610    0.4450 hc        1 TDS      0.032700
     34 HBB1        1.9530   -0.8890   -0.5900 hc        1 TDS      0.038700
     35 HBB2        1.8080    0.9040   -0.4420 hc        1 TDS      0.038700
     36 HBA1        1.7360   -1.1120    1.9090 hc        1 TDS      0.039700
     37 HBA2        1.5910    0.6810    2.0560 hc        1 TDS      0.039700
     38 HAZ1        4.0010   -0.8410    0.8390 hc        1 TDS      0.039700
     39 HAZ2        3.8550    0.9520    0.9870 hc        1 TDS      0.039700
     40 HAY1        3.6400    0.7290    3.4870 hc        1 TDS      0.039700
     41 HAY2        3.7850   -1.0640    3.3390 hc        1 TDS      0.039700
     42 HAX1        6.0490   -0.7940    2.2700 hc        1 TDS      0.039700
     43 HAX2        5.9050    1.0000    2.4170 hc        1 TDS      0.039700
     44 HAW1        5.6890    0.7770    4.9170 hc        1 TDS      0.039700
     45 HAW2        5.8330   -1.0160    4.7700 hc        1 TDS      0.039700
     46 HAV1        8.0980   -0.7470    3.7010 hc        1 TDS      0.040200
     47 HAV2        7.9540    1.0470    3.8460 hc        1 TDS      0.040200
     48 HAU1        7.7370    0.8270    6.3460 hc        1 TDS      0.040200
     49 HAU2        7.8820   -0.9670    6.2010 hc        1 TDS      0.040200
     50 HAT1       10.1470   -0.6990    5.1330 hc        1 TDS      0.041700
     51 HAT2       10.0020    1.0950    5.2750 hc        1 TDS      0.041700
     52 HAS1        9.7850    0.8800    7.7760 hc        1 TDS      0.041200
     53 HAS2        9.9300   -0.9150    7.6330 hc        1 TDS      0.041200
     54 HAR1       12.1970   -0.6530    6.5710 hc        1 TDS      0.052200
     55 HAR2       12.0510    1.1450    6.6990 hc        1 TDS      0.052200
     56 HAQ1       11.8410    0.9470    9.2080 hc        1 TDS      0.070700
     57 HAQ2       11.9710   -0.8610    9.0650 hc        1 TDS      0.070700
     58 HAI1       13.0460    2.8090    7.9820 hc        1 TDS      0.050367
     59 HAI2       13.2800    2.8060    9.7810 hc        1 TDS      0.050367
     60 HAI3       14.5530    3.5240    8.7050 hc        1 TDS      0.050367
     61 HBD        15.8600   -4.2810    8.4140 ho        1 TDS      0.432000
     62 HAJ1       19.9770   -3.6180    7.6170 h1        1 TDS      0.049367
     63 HAJ2       19.8800   -3.7260    9.4500 h1        1 TDS      0.049367
     64 HAJ3       19.5570   -5.2190    8.4220 h1        1 TDS      0.049367
     65 HAD        19.5790   -1.6170    8.6060 ha        1 TDS      0.150000
     66 HAA1       20.4650    0.3110    7.8260 h1        1 TDS      0.047700
     67 HAA2       20.4390    0.1870    9.6590 h1        1 TDS      0.047700
     68 HAA3       20.4940    1.8390    8.8510 h1        1 TDS      0.047700
@<TRIPOS>BOND
     1    1    2 1
     2    1   31 1
     3    1   32 1
     4    1   33 1
     5    2    3 1
     6    2   34 1
     7    2   35 1
     8    3    4 1
     9    3   36 1
    10    3   37 1
    11    4    5 1
    12    4   38 1
    13    4   39 1
    14    5    6 1
    15    5   40 1
    16    5   41 1
    17    6    7 1
    18    6   42 1
    19    6   43 1
    20    7    8 1
    21    7   44 1
    22    7   45 1
    23    8    9 1
    24    8   46 1
    25    8   47 1
    26    9   10 1
    27    9   48 1
    28    9   49 1
    29   10   11 1
    30   10   50 1
    31   10   51 1
    32   11   12 1
    33   11   52 1
    34   11   53 1
    35   12   13 1
    36   12   54 1
    37   12   55 1
    38   13   14 1
    39   13   56 1
    40   13   57 1
    41   14   15 1
    42   14   16 2
    43   15   21 1
    44   16   17 1
    45   16   18 1
    46   17   58 1
    47   17   59 1
    48   17   60 1
    49   18   19 2
    50   18   20 1
    51   20   21 ar
    52   20   28 ar
    53   21   22 ar
    54   22   23 1
    55   22   24 ar
    56   23   61 1
    57   24   25 1
    58   24   27 ar
    59   25   26 1
    60   26   62 1
    61   26   63 1
    62   26   64 1
    63   27   28 ar
    64   27   65 1
    65   28   29 1
    66   29   30 1
    67   30   66 1
    68   30   67 1
    69   30   68 1
@<TRIPOS>SUBSTRUCTURE
     1 TDS         1 TEMP              0 ****  ****    0 ROOT
