@<TRIPOS>MOLECULE
TDU
   39    41     1     0     0
SMALL
bcc


@<TRIPOS>ATOM
      1 OAA          0.0000     0.0000     0.0000 o          1 TDU      -0.687100
      2 CAB          1.1810    -1.1380     5.4800 c2         1 TDU      -0.143200
      3 CAC          1.6670     0.5380    -3.5170 ca         1 TDU      -0.135000
      4 CAD          1.0100     0.4430    -4.7050 ca         1 TDU       0.001000
      5 CAE          0.0370    -0.8690    -2.4440 ca         1 TDU      -0.050000
      6 CAF          0.4390    -1.2990     6.7740 c3         1 TDU       0.026800
      7 CAG          0.3600     0.0430     7.5060 c3         1 TDU      -0.026400
      8 CAH         -0.1350     1.1070     6.5180 c3         1 TDU      -0.024400
      9 CAI          1.1580    -0.0000     2.4360 c3         1 TDU       0.064000
     10 CAJ          0.9470     1.3200     5.4560 c3         1 TDU       0.035800
     11 CAK          2.1520     0.0000     3.5990 c3         1 TDU       0.009800
     12 NAL         -2.0140    -1.3010    -5.6680 nc         1 TDU      -0.126500
     13 NAM         -0.9890    -0.5670    -5.8330 nd         1 TDU      -0.124400
     14 NAN          1.8900     0.0000     1.1670 ns         1 TDU      -0.213900
     15 NAO          1.8900    -0.0000    -1.1670 ns         1 TDU      -0.052100
     16 SAP         -2.1030    -1.7960    -4.1840 ss         1 TDU       0.074600
     17 CAQ          1.3990     0.0000     4.9040 c2         1 TDU      -0.143400
     18 CAR          1.2160     0.0000     0.0000 c          1 TDU       0.564100
     19 CAS          1.1960    -0.1120    -2.3760 ca         1 TDU      -0.049400
     20 CAT         -0.1700    -0.3180    -4.8040 ca         1 TDU       0.001400
     21 CAU         -0.6380    -0.9710    -3.6450 ca         1 TDU      -0.045100
     22 HAC          2.5740     1.1280    -3.4570 ha         1 TDU       0.109000
     23 HAD          1.3950     0.9560    -5.5770 ha         1 TDU       0.115000
     24 HAE         -0.3360    -1.3770    -1.5630 ha         1 TDU       0.154000
     25 HAF         -0.5640    -1.6540     6.5690 hc         1 TDU       0.019200
     26 HAFA         0.9590    -2.0160     7.3970 hc         1 TDU       0.019200
     27 HAG          1.3430     0.3160     7.8710 hc         1 TDU       0.015700
     28 HAGA        -0.3340    -0.0350     8.3340 hc         1 TDU       0.015700
     29 HAH         -0.3160     2.0360     7.0440 hc         1 TDU       0.017200
     30 HAHA        -1.0470     0.7660     6.0440 hc         1 TDU       0.017200
     31 HAI          0.5350    -0.8850     2.4940 h1         1 TDU       0.031200
     32 HAIA         0.5350     0.8840     2.4940 h1         1 TDU       0.031200
     33 HAJ          1.7920     1.8280     5.9040 hc         1 TDU       0.019200
     34 HAJA         0.5440     1.9240     4.6520 hc         1 TDU       0.019200
     35 HAK          2.7750     0.8850     3.5410 hc         1 TDU       0.017200
     36 HAKA         2.7750    -0.8840     3.5410 hc         1 TDU       0.017200
     37 HNAN         2.8910     0.0020     1.1670 hn         1 TDU       0.167500
     38 HNAO         2.8880     0.0670    -1.1680 hn         1 TDU       0.163500
     39 HAB          1.5590    -2.0320     4.9970 ha         1 TDU       0.098000
@<TRIPOS>BOND
     1     1    18 2   
     2     2     6 1   
     3     2    17 2   
     4     2    39 1   
     5     3     4 ar  
     6     3    19 ar  
     7     3    22 1   
     8     4    20 ar  
     9     4    23 1   
    10     5    19 ar  
    11     5    21 ar  
    12     5    24 1   
    13     6     7 1   
    14     6    25 1   
    15     6    26 1   
    16     7     8 1   
    17     7    27 1   
    18     7    28 1   
    19     8    10 1   
    20     8    29 1   
    21     8    30 1   
    22     9    11 1   
    23     9    14 1   
    24     9    31 1   
    25     9    32 1   
    26    10    17 1   
    27    10    33 1   
    28    10    34 1   
    29    11    17 1   
    30    11    35 1   
    31    11    36 1   
    32    12    13 2   
    33    12    16 1   
    34    13    20 1   
    35    14    18 1   
    36    14    37 1   
    37    15    18 1   
    38    15    19 1   
    39    15    38 1   
    40    16    21 1   
    41    20    21 ar  
@<TRIPOS>SUBSTRUCTURE
     1 TDU         1 TEMP              0 ****  ****    0 ROOT
