@<TRIPOS>MOLECULE
molecule
   39    41     1     0     0
SMALL
bcc


@<TRIPOS>ATOM
      1 OAA          0.0000     0.0000     0.0000 o          1 TDU      -0.641100
      2 CAB          1.1810    -1.1380     5.4800 c2         1 TDU      -0.157200
      3 CAC          1.6670     0.5380    -3.5170 ca         1 TDU      -0.156000
      4 CAD          1.0100     0.4430    -4.7050 ca         1 TDU      -0.039000
      5 CAE          0.0370    -0.8690    -2.4440 ca         1 TDU      -0.086000
      6 CAF          0.4390    -1.2990     6.7740 c3         1 TDU      -0.044200
      7 CAG          0.3600     0.0430     7.5060 c3         1 TDU      -0.080400
      8 CAH         -0.1350     1.1070     6.5180 c3         1 TDU      -0.079400
      9 CAI          1.1580    -0.0000     2.4360 c3         1 TDU       0.132000
     10 CAJ          0.9470     1.3200     5.4560 c3         1 TDU      -0.036200
     11 CAK          2.1520     0.0000     3.5990 c3         1 TDU      -0.063200
     12 NAL         -2.0140    -1.3010    -5.6680 nc         1 TDU      -0.157500
     13 NAM         -0.9890    -0.5670    -5.8330 nd         1 TDU      -0.209400
     14 NAN          1.8900     0.0000     1.1670 ns         1 TDU      -0.600900
     15 NAO          1.8900    -0.0000    -1.1670 ns         1 TDU      -0.491100
     16 SAP         -2.1030    -1.7960    -4.1840 ss         1 TDU       0.197600
     17 CAQ          1.3990     0.0000     4.9040 c2         1 TDU      -0.128400
     18 CAR          1.2160     0.0000     0.0000 c          1 TDU       0.780100
     19 CAS          1.1960    -0.1120    -2.3760 ca         1 TDU       0.091600
     20 CAT         -0.1700    -0.3180    -4.8040 ca         1 TDU       0.041400
     21 CAU         -0.6380    -0.9710    -3.6450 ca         1 TDU      -0.081100
     22 HAC          2.5740     1.1280    -3.4570 ha         1 TDU       0.138000
     23 HAD          1.3950     0.9560    -5.5770 ha         1 TDU       0.151000
     24 HAE         -0.3360    -1.3770    -1.5630 ha         1 TDU       0.175000
     25 HAF         -0.5640    -1.6540     6.5690 hc         1 TDU       0.051200
     26 HAFA         0.9590    -2.0160     7.3970 hc         1 TDU       0.051200
     27 HAG          1.3430     0.3160     7.8710 hc         1 TDU       0.044200
     28 HAGA        -0.3340    -0.0350     8.3340 hc         1 TDU       0.044200
     29 HAH         -0.3160     2.0360     7.0440 hc         1 TDU       0.046200
     30 HAHA        -1.0470     0.7660     6.0440 hc         1 TDU       0.046200
     31 HAI          0.5350    -0.8850     2.4940 h1         1 TDU       0.058700
     32 HAIA         0.5350     0.8840     2.4940 h1         1 TDU       0.058700
     33 HAJ          1.7920     1.8280     5.9040 hc         1 TDU       0.049700
     34 HAJA         0.5440     1.9240     4.6520 hc         1 TDU       0.049700
     35 HAK          2.7750     0.8850     3.5410 hc         1 TDU       0.049200
     36 HAKA         2.7750    -0.8840     3.5410 hc         1 TDU       0.049200
     37 HNAN         2.8910     0.0020     1.1670 hn         1 TDU       0.307500
     38 HNAO         2.8880     0.0670    -1.1680 hn         1 TDU       0.321500
     39 HAB          1.5590    -2.0320     4.9970 ha         1 TDU       0.118000
@<TRIPOS>BOND
     1     1    18 2
     2     2     6 1
     3     2    17 2
     4     3     4 ar
     5     3    19 ar
     6     4    20 ar
     7     5    19 ar
     8     5    21 ar
     9     6     7 1
    10     7     8 1
    11     8    10 1
    12     9    11 1
    13     9    14 1
    14    10    17 1
    15    11    17 1
    16    12    13 2
    17    12    16 1
    18    13    20 1
    19    14    18 1
    20    15    18 1
    21    15    19 1
    22    16    21 1
    23    20    21 ar
    24     2    39 1
    25     3    22 1
    26     4    23 1
    27     5    24 1
    28     6    25 1
    29     6    26 1
    30     7    27 1
    31     7    28 1
    32     8    29 1
    33     8    30 1
    34     9    31 1
    35     9    32 1
    36    10    33 1
    37    10    34 1
    38    11    35 1
    39    11    36 1
    40    14    37 1
    41    15    38 1
@<TRIPOS>SUBSTRUCTURE
     1 TDU         1 TEMP              0 ****  ****    0 ROOT
