@<TRIPOS>MOLECULE
molecule
   49    50     1     0     0
SMALL
bcc


@<TRIPOS>ATOM
      1 S1           0.0000     0.0000     0.0000 ss         1 TDW      -0.035800
      2 C2           1.7100     0.0000     0.0000 cc         1 TDW      -0.278700
      3 N3           2.1550     0.0000     1.2110 na         1 TDW       0.023900
      4 C4           1.2610    -0.0000     2.1800 cc         1 TDW      -0.076600
      5 C5          -0.0080     0.0010     1.7620 cd         1 TDW      -0.088400
      6 C6          -1.2310     0.0010     2.6430 c3         1 TDW      -0.008100
      7 C7          -1.6450     1.4440     2.9410 c3         1 TDW       0.236400
      8 O7          -2.8040     1.4450     3.7760 os         1 TDW      -0.607200
      9 PA          -3.5160     2.7950     4.2870 p5         1 TDW       1.430800
     10 PB          -6.1890     3.2380     5.4890 p5         1 TDW       1.348900
     11 N1'          3.7040    -3.7210     1.4530 nb         1 TDW      -0.739000
     12 O1A         -3.8580     3.6440     3.1240 o          1 TDW      -0.841500
     13 O1B         -7.3340     2.2070     5.9550 o          1 TDW      -0.683167
     14 C2'          4.9950    -3.9440     1.5850 ca         1 TDW       0.684300
     15 C27          2.5720    -0.0000    -1.2350 c3         1 TDW       0.258400
     16 O28          2.0630    -0.9530    -2.1710 oh         1 TDW      -0.601800
     17 C29          2.5590     1.3930    -1.8680 c3         1 TDW      -0.126100
     18 O2A         -2.5130     3.5950     5.2590 o          1 TDW      -0.841500
     19 O2B         -5.8570     4.2520     6.6940 o          1 TDW      -0.683167
     20 N3'          5.8640    -2.9590     1.6920 nb         1 TDW      -0.771000
     21 O3A         -4.8600     2.4220     5.0920 os         1 TDW      -0.717800
     22 O3B         -6.6650     4.0060     4.3150 o          1 TDW      -0.683167
     23 C4'          5.4600    -1.6920     1.6690 ca         1 TDW       0.710200
     24 N4'          6.3760    -0.6580     1.7820 nv         1 TDW      -1.084500
     25 C5'          4.0970    -1.4200     1.5290 ca         1 TDW      -0.370900
     26 C6'          3.2230    -2.4850     1.4210 ca         1 TDW       0.487200
     27 C7'          3.5920    -0.0010     1.4980 c3         1 TDW       0.089600
     28 CM4          1.6400     0.0000     3.6380 c3         1 TDW      -0.032800
     29 H6          -1.0080    -0.5090     3.5720 hc         1 TDW       0.055700
     30 H6A         -2.0410    -0.5090     2.1360 hc         1 TDW       0.055700
     31 H7          -0.8350     1.9550     3.4470 h1         1 TDW       0.027700
     32 H7A         -1.8690     1.9550     2.0120 h1         1 TDW       0.027700
     33 H27          3.5870    -0.2650    -0.9670 h1         1 TDW       0.015700
     34 HO28         2.7440    -1.1900    -2.7800 ho         1 TDW       0.388000
     35 H29          2.1540     1.3300    -2.8700 hc         1 TDW       0.043367
     36 H29A         3.5700     1.7790    -1.9100 hc         1 TDW       0.043367
     37 H29B         1.9440     2.0550    -1.2700 hc         1 TDW       0.043367
     38 HN4'         6.8220    -0.2940     0.9630 hn         1 TDW       0.437300
     39 HN4A         6.6220    -0.3050     2.6850 hn         1 TDW       0.437300
     40 H6'          2.1600    -2.3120     1.3120 h4         1 TDW       0.064100
     41 H7'          3.7690     0.4670     2.4590 h1         1 TDW       0.074700
     42 H7'A         4.1140     0.5510     0.7260 h1         1 TDW       0.074700
     43 HM2          5.7770    -5.6270     2.6280 hc         1 TDW       0.055033
     44 HM2A         6.3520    -5.4620     0.9640 hc         1 TDW       0.055033
     45 HM2B         4.7070    -6.0310     1.2790 hc         1 TDW       0.055033
     46 HM4          2.3580    -0.7900     3.8250 hc         1 TDW       0.056033
     47 HM4A         2.0790     0.9560     3.8970 hc         1 TDW       0.056033
     48 HM4B         0.7560    -0.1660     4.2410 hc         1 TDW       0.056033
     49 CM2          5.4930    -5.3660     1.6160 c3         1 TDW      -0.120400
@<TRIPOS>BOND
     1     2     1 1
     2     1     5 1
     3    15     2 1
     4     2     3 2
     5    27     3 1
     6     3     4 1
     7     4     5 2
     8     4    28 1
     9     5     6 1
    10     7     6 1
    11     6    29 1
    12     6    30 1
    13     7     8 1
    14     7    31 1
    15     7    32 1
    16     8     9 1
    17    21     9 1
    18    12     9 1
    19     9    18 1
    20    22    10 1
    21    19    10 1
    22    10    21 1
    23    10    13 1
    24    14    11 ar
    25    11    26 ar
    26    20    14 ar
    27    49    14 1
    28    16    15 1
    29    15    17 1
    30    15    33 1
    31    16    34 1
    32    17    35 1
    33    17    36 1
    34    17    37 1
    35    20    23 ar
    36    24    23 1
    37    23    25 ar
    38    24    38 1
    39    24    39 1
    40    25    27 1
    41    25    26 ar
    42    26    40 1
    43    27    41 1
    44    27    42 1
    45    49    43 1
    46    49    44 1
    47    49    45 1
    48    28    46 1
    49    28    47 1
    50    28    48 1
@<TRIPOS>SUBSTRUCTURE
     1 TDW         1 TEMP              0 ****  ****    0 ROOT
