@<TRIPOS>MOLECULE
molecule
   58    61     1     0     0
SMALL
bcc


@<TRIPOS>ATOM
      1 CAM          0.0000     0.0000     0.0000 c3         1 TDZ      -0.110400
      2 CAL          1.5300     0.0000     0.0000 c3         1 TDZ      -0.025100
      3 CBB          2.0390     0.0000     1.4190 ca         1 TDZ      -0.157300
      4 CAZ          3.3520     0.3710     1.6550 ca         1 TDZ      -0.074300
      5 CAC          4.2390     0.7680     0.5030 c3         1 TDZ      -0.047800
      6 CBA          3.8550     0.3800     2.9470 ca         1 TDZ       0.072100
      7 OAG          5.1430     0.7470     3.1740 oh         1 TDZ      -0.516100
      8 CAX          3.0380     0.0150     4.0070 ca         1 TDZ      -0.072300
      9 CAA          3.5810     0.0210     5.4140 c3         1 TDZ      -0.044800
     10 CAY          1.7300    -0.3550     3.7730 ca         1 TDZ      -0.099300
     11 CAB          0.8440    -0.7520     4.9260 c3         1 TDZ      -0.040800
     12 CBC          1.2240    -0.3630     2.4770 ca         1 TDZ       0.147100
     13 OAR         -0.0730    -0.7250     2.2900 os         1 TDZ      -0.312900
     14 CBE         -0.4810    -1.0870     0.9710 c3         1 TDZ       0.156800
     15 CAD          0.1410    -2.4310     0.5890 c3         1 TDZ      -0.117100
     16 CAN         -2.0070    -1.1900     0.9140 c3         1 TDZ       0.152400
     17 OAQ         -2.4500    -2.2030     1.8190 os         1 TDZ      -0.316900
     18 CAW         -3.7890    -2.4240     1.8900 ca         1 TDZ       0.151100
     19 CAK         -4.2890    -3.3930     2.7480 ca         1 TDZ      -0.189500
     20 CAI         -5.6510    -3.6150     2.8190 ca         1 TDZ      -0.077000
     21 CAJ         -4.6590    -1.6760     1.1100 ca         1 TDZ      -0.189500
     22 CAH         -6.0200    -1.9020     1.1840 ca         1 TDZ      -0.077000
     23 CAV         -6.5150    -2.8720     2.0360 ca         1 TDZ      -0.146300
     24 CAO         -7.9990    -3.1170     2.1150 c3         1 TDZ      -0.004100
     25 CBD         -8.6080    -2.2160     3.1910 c3         1 TDZ      -0.067600
     26 SAS         -8.4900    -0.4620     2.7060 ss         1 TDZ      -0.241700
     27 CAT        -10.2450    -0.2110     2.6870 c          1 TDZ       0.737100
     28 OAE        -10.8190     0.8270     2.4190 o          1 TDZ      -0.544500
     29 NAP        -10.8230    -1.3660     3.0200 ns         1 TDZ      -0.583500
     30 CAU        -10.1020    -2.4410     3.2950 c          1 TDZ       0.702500
     31 OAF        -10.5910    -3.5070     3.6010 o          1 TDZ      -0.573500
     32 HAM1        -0.3530     0.9640     0.3460 hc         1 TDZ       0.059700
     33 HAM2        -0.3530    -0.2350    -0.9970 hc         1 TDZ       0.059700
     34 HAL1         1.8780    -0.8990    -0.4950 hc         1 TDZ       0.058700
     35 HAL2         1.8780     0.8990    -0.4940 hc         1 TDZ       0.058700
     36 HAC1         3.8270     1.6420     0.0150 hc         1 TDZ       0.046700
     37 HAC2         4.2970    -0.0490    -0.2060 hc         1 TDZ       0.046700
     38 HAC3         5.2310     0.9950     0.8730 hc         1 TDZ       0.046700
     39 HOAG         5.7020    -0.0090     3.1050 ho         1 TDZ       0.412000
     40 HAA1         3.4740    -0.9660     5.8470 hc         1 TDZ       0.048033
     41 HAA2         3.0300     0.7380     6.0100 hc         1 TDZ       0.048033
     42 HAA3         4.6280     0.2960     5.3950 hc         1 TDZ       0.048033
     43 HAB1         1.0930    -1.7580     5.2430 hc         1 TDZ       0.047367
     44 HAB2         0.9950    -0.0660     5.7510 hc         1 TDZ       0.047367
     45 HAB3        -0.1930    -0.7180     4.6140 hc         1 TDZ       0.047367
     46 HAD1        -0.3250    -3.2210     1.1650 hc         1 TDZ       0.052033
     47 HAD2        -0.0140    -2.6140    -0.4670 hc         1 TDZ       0.052033
     48 HAD3         1.2040    -2.4090     0.8000 hc         1 TDZ       0.052033
     49 HAN1        -2.4430    -0.2390     1.1940 h1         1 TDZ       0.049200
     50 HAN2        -2.3140    -1.4450    -0.0930 h1         1 TDZ       0.049200
     51 HAK         -3.6120    -3.9740     3.3620 ha         1 TDZ       0.142500
     52 HAI         -6.0420    -4.3730     3.4870 ha         1 TDZ       0.139500
     53 HAJ         -4.2710    -0.9160     0.4420 ha         1 TDZ       0.142500
     54 HAH         -6.7000    -1.3210     0.5730 ha         1 TDZ       0.139500
     55 HAO1        -8.1810    -4.1550     2.3670 hc         1 TDZ       0.069200
     56 HAO2        -8.4540    -2.8930     1.1570 hc         1 TDZ       0.069200
     57 HBD         -8.1320    -2.3780     4.1510 h1         1 TDZ       0.123700
     58 HNAP       -11.8210    -1.4210     3.0640 hn         1 TDZ       0.349500
@<TRIPOS>BOND
     1     1     2 1
     2     1    14 1
     3     1    32 1
     4     1    33 1
     5     2     3 1
     6     2    34 1
     7     2    35 1
     8     3     4 ar
     9     3    12 ar
    10     4     5 1
    11     4     6 ar
    12     5    36 1
    13     5    37 1
    14     5    38 1
    15     6     7 1
    16     6     8 ar
    17     7    39 1
    18     8    10 ar
    19     8     9 1
    20     9    40 1
    21     9    41 1
    22     9    42 1
    23    10    12 ar
    24    10    11 1
    25    11    43 1
    26    11    44 1
    27    11    45 1
    28    12    13 1
    29    13    14 1
    30    14    16 1
    31    14    15 1
    32    15    46 1
    33    15    47 1
    34    15    48 1
    35    16    17 1
    36    16    49 1
    37    16    50 1
    38    17    18 1
    39    18    19 ar
    40    18    21 ar
    41    19    20 ar
    42    19    51 1
    43    20    23 ar
    44    20    52 1
    45    21    22 ar
    46    21    53 1
    47    22    23 ar
    48    22    54 1
    49    23    24 1
    50    24    25 1
    51    24    55 1
    52    24    56 1
    53    25    26 1
    54    25    30 1
    55    25    57 1
    56    26    27 1
    57    27    28 2
    58    27    29 1
    59    29    30 1
    60    29    58 1
    61    30    31 2
@<TRIPOS>SUBSTRUCTURE
     1 TDZ         1 TEMP              0 ****  ****    0 ROOT
