@<TRIPOS>MOLECULE
TE1
   39    39     1     0     0
SMALL
bcc


@<TRIPOS>ATOM
      1 CAA        -0.0220   -0.4910    0.0050 c3        1 TE1     -0.087100
      2 OAB         4.0170   -0.9070    0.8310 oh        1 TE1     -0.613800
      3 OAC         4.7070    2.4920    2.5170 os        1 TE1     -0.335900
      4 CAD         5.7540    3.4060    2.8070 c3        1 TE1      0.120700
      5 CAE         1.2970    1.5630   -0.4540 c3        1 TE1     -0.087100
      6 CAF         1.3530    0.1410    0.0630 c3        1 TE1     -0.069700
      7 CAG         1.8990    0.0870    1.4810 c3        1 TE1     -0.107400
      8 CAH         3.4270    0.1890    1.5120 c3        1 TE1      0.206400
      9 CAI         3.9090    0.2890    2.9310 ca        1 TE1     -0.167300
     10 CAJ         4.5730    1.4330    3.4060 ca        1 TE1      0.138100
     11 CAK         5.0270    1.5010    4.7280 ca        1 TE1     -0.292000
     12 OAL         4.9010   -4.6690    4.2380 o         1 TE1     -0.835800
     13 OAM         3.0230   -3.7030    3.5270 o         1 TE1     -0.835800
     14 CAN         3.9280   -3.8810    4.3990 c         1 TE1      0.896800
     15 CAO         3.7080   -0.7810    3.8060 ca        1 TE1     -0.075000
     16 CAP         4.1620   -0.7650    5.1290 ca        1 TE1     -0.042800
     17 CAQ         4.8180    0.4050    5.5750 ca        1 TE1      0.131100
     18 OAR         5.2370    0.4390    6.8910 oh        1 TE1     -0.497100
     19 CAS         3.8260   -3.1770    5.7300 ce        1 TE1     -0.154200
     20 CAT         3.9510   -1.8800    6.0330 cf        1 TE1     -0.167200
     21 HAA         0.0290   -1.5620    0.3160 hc        1 TE1      0.027033
     22 HAAA       -0.4300   -0.4410   -1.0340 hc        1 TE1      0.027033
     23 HAAB       -0.7270    0.0420    0.6870 hc        1 TE1      0.027033
     24 HOAB        3.8690   -1.7030    1.3620 ho        1 TE1      0.430000
     25 HAD         5.4650    4.0650    3.6630 h1        1 TE1      0.033033
     26 HADA        6.7090    2.8740    3.0340 h1        1 TE1      0.033033
     27 HADB        5.8510    4.0100    1.8690 h1        1 TE1      0.033033
     28 HAE         0.6010    2.1790    0.1640 hc        1 TE1      0.027033
     29 HAEA        2.3100    2.0310   -0.4170 hc        1 TE1      0.027033
     30 HAEB        0.9380    1.5780   -1.5110 hc        1 TE1      0.027033
     31 HAF         2.0500   -0.4550   -0.5960 hc        1 TE1      0.066700
     32 HAG         1.4660    0.9200    2.0910 hc        1 TE1      0.055200
     33 HAGA        1.5980   -0.8830    1.9610 hc        1 TE1      0.055200
     34 HAH         3.7670    1.0870    0.9200 h1        1 TE1      0.073700
     35 HAK         5.5420    2.3940    5.1040 ha        1 TE1      0.120000
     36 HAO         3.1790   -1.6910    3.4460 ha        1 TE1      0.215000
     37 HOAR        5.7220    1.2660    7.0210 ho        1 TE1      0.399000
     38 HAS         3.6670   -3.8920    6.5570 ha        1 TE1      0.100000
     39 HAT         3.9150   -1.5710    7.0950 ha        1 TE1      0.101000
@<TRIPOS>BOND
     1    1    6 1   
     2    1   21 1   
     3    1   22 1   
     4    1   23 1   
     5    2    8 1   
     6    2   24 1   
     7    3    4 1   
     8    3   10 1   
     9    4   25 1   
    10    4   26 1   
    11    4   27 1   
    12    5    6 1   
    13    5   28 1   
    14    5   29 1   
    15    5   30 1   
    16    6    7 1   
    17    6   31 1   
    18    7    8 1   
    19    7   32 1   
    20    7   33 1   
    21    8    9 1   
    22    8   34 1   
    23    9   10 ar  
    24    9   15 ar  
    25   10   11 ar  
    26   11   17 ar  
    27   11   35 1   
    28   12   14 1   
    29   13   14 1   
    30   14   19 1   
    31   15   16 ar  
    32   15   36 1   
    33   16   17 ar  
    34   16   20 1   
    35   17   18 1   
    36   18   37 1   
    37   19   20 2   
    38   19   38 1   
    39   20   39 1   
@<TRIPOS>SUBSTRUCTURE
     1 TE1         1 TEMP              0 ****  ****    0 ROOT
