@<TRIPOS>MOLECULE
molecule
   39    39     1     0     0
SMALL
bcc


@<TRIPOS>ATOM
      1 CAA          0.0000     0.0000     0.0000 c3         1 TE1      -0.088100
      2 OAB          3.9390    -1.3970     0.9110 oh         1 TE1      -0.602800
      3 OAC          4.0790     2.3690     2.6590 os         1 TE1      -0.340900
      4 CAD          4.3410     3.6290     3.2770 c3         1 TE1       0.133700
      5 CAE          2.0390     1.2490    -0.7210 c3         1 TE1      -0.088100
      6 CAF          1.5300     0.0000     0.0000 c3         1 TE1      -0.079700
      7 CAG          2.0400     0.0000     1.4430 c3         1 TE1      -0.067400
      8 CAH          3.5650    -0.1250     1.4440 c3         1 TE1       0.207400
      9 CAI          4.0780    -0.0020     2.8570 ca         1 TE1      -0.152300
     10 CAJ          4.3120     1.2570     3.4010 ca         1 TE1       0.116100
     11 CAK          4.7840     1.3810     4.7000 ca         1 TE1      -0.261000
     12 OAL          1.9580    -4.0410     5.0820 o          1 TE1      -0.785300
     13 OAM          2.5040    -1.9060     4.7900 o          1 TE1      -0.785300
     14 CAN          2.8250    -3.0120     5.1820 c          1 TE1       0.955800
     15 CAO          4.3050    -1.1340     3.6030 ca         1 TE1      -0.019000
     16 CAP          4.7820    -1.0220     4.9160 ca         1 TE1       0.006200
     17 CAQ          5.0240     0.2520     5.4610 ca         1 TE1       0.087100
     18 OAR          5.4850     0.3720     6.7320 oh         1 TE1      -0.510100
     19 CAS          4.1090    -3.2190     5.7430 ce         1 TE1      -0.192200
     20 CAT          5.0270    -2.2260     5.7170 cf         1 TE1      -0.316200
     21 HAA         -0.3610    -0.0240    -1.0210 hc         1 TE1       0.027700
     22 HAAA        -0.3610     0.8960     0.4900 hc         1 TE1       0.027700
     23 HAAB        -0.3610    -0.8720     0.5310 hc         1 TE1       0.027700
     24 HOAB         4.7600    -1.3170     0.4540 ho         1 TE1       0.388000
     25 HAD          3.7230     3.7330     4.1610 h1         1 TE1       0.030700
     26 HADA         4.1120     4.4270     2.5810 h1         1 TE1       0.030700
     27 HADB         5.3860     3.6830     3.5580 h1         1 TE1       0.030700
     28 HAE          1.4430     1.4230    -1.6080 hc         1 TE1       0.027700
     29 HAEA         1.9610     2.1050    -0.0600 hc         1 TE1       0.027700
     30 HAEB         3.0750     1.1060    -1.0040 hc         1 TE1       0.027700
     31 HAF          1.8910    -0.8840    -0.5110 hc         1 TE1       0.058700
     32 HAG          1.6090    -0.8370     1.9790 hc         1 TE1       0.070700
     33 HAGA         1.7530     0.9250     1.9280 hc         1 TE1       0.070700
     34 HAH          3.9920     0.6620     0.8350 h1         1 TE1       0.029700
     35 HAK          4.9680     2.3640     5.1180 ha         1 TE1       0.121000
     36 HAO          4.1170    -2.1120     3.1770 ha         1 TE1       0.166000
     37 HOAR         6.3750     0.6830     6.7150 ho         1 TE1       0.402000
     38 HAS          3.9520    -3.3840     4.6840 ha         1 TE1       0.065000
     39 HAT          4.4580    -1.4060     6.1390 ha         1 TE1       0.153000
@<TRIPOS>BOND
     1     1     6 1
     2     2     8 1
     3     3     4 1
     4     3    10 1
     5     5     6 1
     6     6     7 1
     7     7     8 1
     8     8     9 1
     9     9    10 ar
    10     9    15 ar
    11    10    11 ar
    12    11    17 ar
    13    12    14 1
    14    13    14 1
    15    14    19 1
    16    15    16 ar
    17    16    17 ar
    18    16    20 1
    19    17    18 1
    20    19    20 2
    21     1    21 1
    22     1    22 1
    23     1    23 1
    24     2    24 1
    25     4    25 1
    26     4    26 1
    27     4    27 1
    28     5    28 1
    29     5    29 1
    30     5    30 1
    31     6    31 1
    32     7    32 1
    33     7    33 1
    34     8    34 1
    35    11    35 1
    36    15    36 1
    37    18    37 1
    38    19    38 1
    39    20    39 1
@<TRIPOS>SUBSTRUCTURE
     1 TE1         1 TEMP              0 ****  ****    0 ROOT
