@<TRIPOS>MOLECULE
TE4
   43    43     1     0     0
SMALL
bcc


@<TRIPOS>ATOM
      1 O2           0.0000     0.0000     0.0000 o          1 TE4      -0.609000
      2 C7           1.2150     0.0000     0.0000 c          1 TE4       0.728700
      3 O1           1.8890     0.0000     1.1680 os         1 TE4      -0.399900
      4 C8           1.0970     0.0070     2.3850 c3         1 TE4       0.226400
      5 C9           2.0280     0.0060     3.5990 c3         1 TE4       0.139800
      6 N1           2.7950     1.2580     3.6280 n3         1 TE4      -0.538600
      7 C14          1.9590     2.3760     4.0900 c3         1 TE4       0.181100
      8 C15          3.9970     1.1210     4.4610 c3         1 TE4       0.181100
      9 C4           1.9520    -0.0060    -1.2760 ca         1 TE4      -0.222600
     10 C5           3.3510    -0.0100    -1.2770 ca         1 TE4       0.013500
     11 C6           4.0330    -0.0170    -2.4660 ca         1 TE4      -0.217000
     12 C1           3.3370    -0.0180    -3.6710 ca         1 TE4       0.095600
     13 C2           1.9440    -0.0120    -3.6740 ca         1 TE4      -0.217000
     14 C3           1.2560    -0.0120    -2.4880 ca         1 TE4       0.013500
     15 N2           4.0320    -0.0230    -4.8750 nu         1 TE4      -0.415600
     16 C10          3.3000    -0.0240    -6.1440 c3         1 TE4       0.158800
     17 C11          4.2950    -0.0310    -7.3070 c3         1 TE4      -0.039400
     18 C12          3.5310    -0.0320    -8.6320 c3         1 TE4      -0.022400
     19 C13          4.5250    -0.0370    -9.7940 c3         1 TE4       0.006900
     20 H1           0.4760     0.8940     2.4070 h1         1 TE4       0.011700
     21 H2           0.4690    -0.8750     2.4120 h1         1 TE4       0.011700
     22 H3           1.4410    -0.0790     4.5050 h1         1 TE4       0.017700
     23 H4           2.7100    -0.8330     3.5310 h1         1 TE4       0.017700
     24 H6           2.5730     3.0870     4.6290 h1         1 TE4       0.001200
     25 H7           1.1830     1.9990     4.7450 h1         1 TE4       0.001200
     26 H8           1.5060     2.8640     3.2360 h1         1 TE4       0.001200
     27 H9           3.7050     0.9540     5.4910 h1         1 TE4       0.001200
     28 H10          4.5850     0.2820     4.1110 h1         1 TE4       0.001200
     29 H11          4.5870     2.0270     4.3960 h1         1 TE4       0.001200
     30 H12          3.8940    -0.0090    -0.3400 ha         1 TE4       0.117500
     31 H13          5.1170    -0.0210    -2.4670 ha         1 TE4       0.114500
     32 H14          1.4050    -0.0150    -4.6130 ha         1 TE4       0.114500
     33 H15          0.1720    -0.0070    -2.4900 ha         1 TE4       0.117500
     34 H16          5.0330    -0.0230    -4.8750 hn         1 TE4       0.294800
     35 H17          2.6800     0.8630    -6.2040 h1         1 TE4       0.017700
     36 H18          2.6740    -0.9060    -6.2000 h1         1 TE4       0.017700
     37 H19          4.9210     0.8520    -7.2510 hc         1 TE4       0.019700
     38 H20          4.9150    -0.9170    -7.2460 hc         1 TE4       0.019700
     39 H21          2.9060    -0.9140    -8.6870 hc         1 TE4       0.014700
     40 H22          2.9110     0.8550    -8.6910 hc         1 TE4       0.014700
     41 H23          5.1510     0.8460    -9.7390 hc         1 TE4       0.002033
     42 H24          5.1460    -0.9230    -9.7340 hc         1 TE4       0.002033
     43 H25          3.9840    -0.0380   -10.7320 hc         1 TE4       0.002033
@<TRIPOS>BOND
     1     1     2 2   
     2     2     3 1   
     3     2     9 1   
     4     3     4 1   
     5     4     5 1   
     6     4    20 1   
     7     4    21 1   
     8     5     6 1   
     9     5    22 1   
    10     5    23 1   
    11     6     7 1   
    12     6     8 1   
    13     7    24 1   
    14     7    25 1   
    15     7    26 1   
    16     8    27 1   
    17     8    28 1   
    18     8    29 1   
    19     9    10 ar  
    20     9    14 ar  
    21    10    11 ar  
    22    10    30 1   
    23    11    12 ar  
    24    11    31 1   
    25    12    13 ar  
    26    12    15 1   
    27    13    14 ar  
    28    13    32 1   
    29    14    33 1   
    30    15    16 1   
    31    15    34 1   
    32    16    17 1   
    33    16    35 1   
    34    16    36 1   
    35    17    18 1   
    36    17    37 1   
    37    17    38 1   
    38    18    19 1   
    39    18    39 1   
    40    18    40 1   
    41    19    41 1   
    42    19    42 1   
    43    19    43 1   
@<TRIPOS>SUBSTRUCTURE
     1 TE4         1 TEMP              0 ****  ****    0 ROOT
