@<TRIPOS>MOLECULE
TE7
   45    48     1     0     0
SMALL
bcc


@<TRIPOS>ATOM
      1 CAA          0.0000     0.0000     0.0000 c3         1 TE7       0.243700
      2 CAB         12.8900    -0.1610     1.2530 c3         1 TE7       0.181600
      3 CAC         12.5020     1.3240     3.1250 c3         1 TE7       0.181600
      4 OAD          6.2300     0.0100     1.5900 o          1 TE7      -0.614100
      5 CAE          1.2870    -0.0000     2.3770 ca         1 TE7      -0.161000
      6 CAF          7.9250     0.0740     5.5420 ca         1 TE7      -0.235000
      7 CAG          7.0340     0.0720     6.5950 ca         1 TE7       0.069000
      8 CAH          1.9000     0.0000     3.6110 ca         1 TE7      -0.095000
      9 CAI          3.4760     0.0280     6.2490 cc         1 TE7       0.204700
     10 CAJ          3.4260    -0.0010     1.2820 ca         1 TE7      -0.064000
     11 CAK          9.8660     0.0760     3.4740 c3         1 TE7       0.142800
     12 CAL         10.6610     0.0780     2.1670 c3         1 TE7       0.144800
     13 NAM          4.5050     0.0460     7.0610 nd         1 TE7      -0.466100
     14 NAN          8.4320     0.0810     3.1740 nu         1 TE7      -0.393600
     15 OAO          1.4290     0.0000     0.0000 os         1 TE7      -0.301900
     16 CAP          2.0460    -0.0010     1.2110 ca         1 TE7       0.129100
     17 CAQ          7.5070     0.0790     4.2080 ca         1 TE7       0.165600
     18 CAR          5.5410     0.0100     2.5940 c          1 TE7       0.679300
     19 CAS          5.6570     0.0550     6.3450 ca         1 TE7      -0.010600
     20 CAT          4.0590     0.0110     2.5270 ca         1 TE7      -0.138600
     21 CAU          3.2880     0.0080     3.7020 ca         1 TE7      -0.155200
     22 CAV          6.1320     0.0430     3.9390 ca         1 TE7      -0.292600
     23 CAW          5.2560     0.0390     5.0150 ca         1 TE7      -0.214200
     24 NAX         12.0990     0.0750     2.4680 n3         1 TE7      -0.542600
     25 NAY          3.9000     0.0230     4.9500 na         1 TE7       0.471600
     26 HAA         -0.3610     0.8840     0.5110 h1         1 TE7      -0.001300
     27 HAAA        -0.3610     0.0000    -1.0210 h1         1 TE7      -0.001300
     28 HAAB        -0.3610    -0.8850     0.5100 h1         1 TE7      -0.001300
     29 HAB         12.6060    -1.1110     0.8160 h1         1 TE7       0.003033
     30 HABA        13.9430    -0.1810     1.5060 h1         1 TE7       0.003033
     31 HABB        12.7050     0.6340     0.5410 h1         1 TE7       0.003033
     32 HAC         12.3540     1.2340     4.1940 h1         1 TE7       0.003033
     33 HACA        11.9030     2.1420     2.7450 h1         1 TE7       0.003033
     34 HACB        13.5490     1.5170     2.9210 h1         1 TE7       0.003033
     35 HAE          0.2050    -0.0000     2.3150 ha         1 TE7       0.123000
     36 HAF          8.9870     0.0710     5.7570 ha         1 TE7       0.120000
     37 HAG          7.3990     0.0680     7.6150 ha         1 TE7       0.104000
     38 HAH          1.3000     0.0000     4.5130 ha         1 TE7       0.114000
     39 HAI          2.4390     0.0170     6.5630 h5         1 TE7       0.029800
     40 HAJ          4.0160    -0.0010     0.3730 ha         1 TE7       0.140000
     41 HAK         10.1170     0.9580     4.0510 h1         1 TE7       0.025700
     42 HAKA        10.1120    -0.8110     4.0460 h1         1 TE7       0.025700
     43 HAL         10.4140     0.9650     1.5950 h1         1 TE7       0.016200
     44 HALA        10.4110    -0.8040     1.5910 h1         1 TE7       0.016200
     45 HNAN         8.1200     0.1010     2.2240 hn         1 TE7       0.339800
@<TRIPOS>BOND
     1     1    15 1   
     2     1    26 1   
     3     1    27 1   
     4     1    28 1   
     5     2    24 1   
     6     2    29 1   
     7     2    30 1   
     8     2    31 1   
     9     3    24 1   
    10     3    32 1   
    11     3    33 1   
    12     3    34 1   
    13     4    18 2   
    14     5     8 ar  
    15     5    16 ar  
    16     5    35 1   
    17     6     7 ar  
    18     6    17 ar  
    19     6    36 1   
    20     7    19 ar  
    21     7    37 1   
    22     8    21 ar  
    23     8    38 1   
    24     9    13 2   
    25     9    25 1   
    26     9    39 1   
    27    10    16 ar  
    28    10    20 ar  
    29    10    40 1   
    30    11    12 1   
    31    11    14 1   
    32    11    41 1   
    33    11    42 1   
    34    12    24 1   
    35    12    43 1   
    36    12    44 1   
    37    13    19 1   
    38    14    17 1   
    39    14    45 1   
    40    15    16 1   
    41    17    22 ar  
    42    18    20 1   
    43    18    22 1   
    44    19    23 ar  
    45    20    21 ar  
    46    21    25 1   
    47    22    23 ar  
    48    23    25 1   
@<TRIPOS>SUBSTRUCTURE
     1 TE7         1 TEMP              0 ****  ****    0 ROOT
