@<TRIPOS>MOLECULE
TEA
   23    22     1     0     0
SMALL
bcc


@<TRIPOS>ATOM
      1 N            0.0000     0.0000     0.0000 nx         1 TEA      -0.044400
      2 C11          1.5020     0.0000     0.0000 c3         1 TEA       0.007133
      3 C12          2.0010     0.0000     1.4280 c3         1 TEA      -0.012767
      4 C21         -0.5610    -1.2460     0.6250 c3         1 TEA       0.007133
      5 C22         -0.0190    -2.4570    -0.1030 c3         1 TEA      -0.012767
      6 C31         -0.5630     1.2440     0.6250 c3         1 TEA       0.007133
      7 C32         -0.0210     2.4560    -0.1020 c3         1 TEA      -0.012767
      8 HN          -0.2900     0.0000    -0.9580 hn         1 TEA       0.260800
      9 H111         1.8640     0.8850    -0.5100 hx         1 TEA       0.078533
     10 H112         1.8640    -0.8850    -0.5100 hx         1 TEA       0.078533
     11 H121         2.6040     0.8840     1.6000 hc         1 TEA       0.036700
     12 H122         1.1560     0.0020     2.1060 hc         1 TEA       0.036700
     13 H123         2.6010    -0.8850     1.6010 hc         1 TEA       0.036700
     14 H211        -1.6410    -1.2330     0.5500 hx         1 TEA       0.078533
     15 H212        -0.2700    -1.2900     1.6670 hx         1 TEA       0.078533
     16 H221         0.9590    -2.7060     0.2900 hc         1 TEA       0.036700
     17 H222         0.0630    -2.2360    -1.1610 hc         1 TEA       0.036700
     18 H223        -0.6900    -3.2950     0.0400 hc         1 TEA       0.036700
     19 H311        -1.6430     1.2300     0.5500 hx         1 TEA       0.078533
     20 H312        -0.2730     1.2880     1.6680 hx         1 TEA       0.078533
     21 H321        -0.6920     3.2940     0.0420 hc         1 TEA       0.036700
     22 H322         0.0610     2.2360    -1.1600 hc         1 TEA       0.036700
     23 H323         0.9570     2.7060     0.2910 hc         1 TEA       0.036700
@<TRIPOS>BOND
     1     1     2 1   
     2     1     4 1   
     3     1     6 1   
     4     1     8 1   
     5     2     3 1   
     6     2     9 1   
     7     2    10 1   
     8     3    11 1   
     9     3    12 1   
    10     3    13 1   
    11     4     5 1   
    12     4    14 1   
    13     4    15 1   
    14     5    16 1   
    15     5    17 1   
    16     5    18 1   
    17     6     7 1   
    18     6    19 1   
    19     6    20 1   
    20     7    21 1   
    21     7    22 1   
    22     7    23 1   
@<TRIPOS>SUBSTRUCTURE
     1 TEA         1 TEMP              0 ****  ****    0 ROOT
