@<TRIPOS>MOLECULE
TEB
   47    49     1     0     0
SMALL
bcc


@<TRIPOS>ATOM
      1 C7           0.0000     0.0000     0.0000 c          1 TEB       0.685900
      2 O14          1.2080     0.0000     0.0000 o          1 TEB      -0.580100
      3 C6          -0.7540     0.0000     1.3050 c3         1 TEB      -0.215700
      4 C8          -1.4640    -1.3430     1.4830 c3         1 TEB       0.200100
      5 O15         -2.1800    -1.3430     2.7200 oh         1 TEB      -0.589800
      6 C9          -0.4300    -2.4700     1.4910 c3         1 TEB      -0.044100
      7 C5          -1.7890     1.1270     1.2960 c3         1 TEB       0.143500
      8 C1          -1.0910     2.4940     1.1860 c3         1 TEB       0.033500
      9 C10          0.4260     2.3160     1.1180 c3         1 TEB      -0.058100
     10 N4          -2.6300     1.0410     0.0940 nu         1 TEB      -0.423000
     11 C3          -2.4710     2.2120    -0.6660 ce         1 TEB       0.072800
     12 C11         -3.1430     2.4490    -1.8870 c          1 TEB       0.942800
     13 O13         -3.9080     1.4820    -2.4370 o          1 TEB      -0.857800
     14 O12         -3.0320     3.5270    -2.4440 o          1 TEB      -0.857800
     15 C2          -1.6110     3.0840    -0.1060 c2         1 TEB      -0.193600
     16 S16         -1.1650     4.6530    -0.7700 ss         1 TEB      -0.250700
     17 C17         -1.7850     5.7360     0.5420 cy         1 TEB       0.007400
     18 C20         -1.7430     7.2320     0.1810 cy         1 TEB       0.183300
     19 N19         -0.3960     7.2370     0.7820 nn         1 TEB      -0.423600
     20 C18         -0.7360     6.0690     1.6180 cy         1 TEB       0.183300
     21 C21          0.7270     8.0180     0.6260 c2         1 TEB       0.617100
     22 N25          0.8230     9.0190    -0.1720 n2         1 TEB      -0.681900
     23 C24          2.0600     9.7640    -0.2470 c3         1 TEB       0.186800
     24 C23          3.1170     9.1850     0.7070 c3         1 TEB       0.065700
     25 S22          2.2470     7.7930     1.4990 ss         1 TEB      -0.400300
     26 H7          -0.5410    -0.0510    -0.9370 h4         1 TEB      -0.009800
     27 H6          -0.0610     0.1530     2.1230 hc         1 TEB       0.072700
     28 H8          -2.1580    -1.4960     0.6650 h1         1 TEB       0.009700
     29 HO15        -2.8250    -2.0310     2.7100 ho         1 TEB       0.387000
     30 H9          -0.7670    -3.2640     2.1470 hc         1 TEB       0.012033
     31 H9A          0.5190    -2.0870     1.8460 hc         1 TEB       0.012033
     32 H9B         -0.3100    -2.8580     0.4870 hc         1 TEB       0.012033
     33 H5          -2.4030     1.0900     2.1880 h1         1 TEB       0.033700
     34 H1          -1.3650     3.1240     2.0230 hc         1 TEB       0.015700
     35 H10          0.9120     3.2330     1.4270 hc         1 TEB       0.022367
     36 H10A         0.7250     1.5090     1.7760 hc         1 TEB       0.022367
     37 H10B         0.7170     2.0780     0.1010 hc         1 TEB       0.022367
     38 HN4         -3.2220     0.2710    -0.1450 hn         1 TEB       0.321800
     39 H17         -2.7360     5.4320     0.9620 h1         1 TEB       0.059700
     40 H20         -1.7330     7.4120    -0.8870 h1         1 TEB       0.034450
     41 H20A        -2.4600     7.8240     0.7370 h1         1 TEB       0.034450
     42 H18          0.0630     5.3390     1.6750 h1         1 TEB       0.034450
     43 H18A        -1.1740     6.3400     2.5710 h1         1 TEB       0.034450
     44 H24          2.4380     9.7200    -1.2620 h1         1 TEB       0.018700
     45 H24A         1.8690    10.7960     0.0220 h1         1 TEB       0.018700
     46 H23          3.4080     9.9220     1.4450 h1         1 TEB       0.044700
     47 H23A         3.9770     8.8300     0.1510 h1         1 TEB       0.044700
@<TRIPOS>BOND
     1     1     2 2   
     2     1     3 1   
     3     1    26 1   
     4     3     4 1   
     5     3     7 1   
     6     3    27 1   
     7     4     5 1   
     8     4     6 1   
     9     4    28 1   
    10     5    29 1   
    11     6    30 1   
    12     6    31 1   
    13     6    32 1   
    14     7     8 1   
    15     7    10 1   
    16     7    33 1   
    17     8     9 1   
    18     8    15 1   
    19     8    34 1   
    20     9    35 1   
    21     9    36 1   
    22     9    37 1   
    23    10    11 1   
    24    10    38 1   
    25    11    12 1   
    26    11    15 2   
    27    12    13 1   
    28    12    14 1   
    29    15    16 1   
    30    16    17 1   
    31    17    18 1   
    32    17    20 1   
    33    17    39 1   
    34    18    19 1   
    35    18    40 1   
    36    18    41 1   
    37    19    20 1   
    38    19    21 1   
    39    20    42 1   
    40    20    43 1   
    41    21    22 2   
    42    21    25 1   
    43    22    23 1   
    44    23    24 1   
    45    23    44 1   
    46    23    45 1   
    47    24    25 1   
    48    24    46 1   
    49    24    47 1   
@<TRIPOS>SUBSTRUCTURE
     1 TEB         1 TEMP              0 ****  ****    0 ROOT
