@<TRIPOS>MOLECULE
TEC
   55    55     1     0     0
SMALL
bcc


@<TRIPOS>ATOM
      1 CAV          0.0000     0.0000     0.0000 c3         1 TEC       0.006900
      2 CAU          1.5290     0.0000     0.0000 c3         1 TEC      -0.028400
      3 CAT          2.0400     0.0000     1.4420 c3         1 TEC      -0.029400
      4 CAS          3.5700     0.0010     1.4430 c3         1 TEC      -0.028400
      5 CAR          4.0800     0.0010     2.8850 c3         1 TEC      -0.028400
      6 CAQ          5.6090     0.0010     2.8850 c3         1 TEC      -0.026400
      7 CAP          6.1200     0.0010     4.3280 c3         1 TEC      -0.029400
      8 CAO          7.6490     0.0020     4.3280 c3         1 TEC      -0.021400
      9 CAN          8.1590     0.0020     5.7700 c3         1 TEC      -0.064400
     10 CAM          9.6660     0.0020     5.7710 c          1 TEC       0.692100
     11 OAW         10.2700     0.0020     4.7240 o          1 TEC      -0.572000
     12 O6          10.3370     0.0020     6.9330 os         1 TEC      -0.418900
     13 C6          11.7880     0.0020     6.8580 c3         1 TEC       0.231400
     14 C5          12.3730     0.0020     8.2710 c3         1 TEC       0.163100
     15 O5          12.0300    -1.2190     8.9290 os         1 TEC      -0.370600
     16 C1          12.5070    -1.3130    10.2720 c3         1 TEC       0.412900
     17 O1          12.0890    -2.5560    10.8420 oh         1 TEC      -0.581800
     18 C2          14.0360    -1.2400    10.2750 c3         1 TEC      -0.144500
     19 N2          14.5270    -1.2760    11.6590 nz         1 TEC       0.090400
     20 C3          14.4780     0.0670     9.6090 c3         1 TEC       0.155100
     21 O3          15.9050     0.1100     9.5420 oh         1 TEC      -0.581800
     22 C4          13.8950     0.1290     8.1940 c3         1 TEC       0.151100
     23 O4          14.2410     1.3760     7.5890 oh         1 TEC      -0.561800
     24 H1          -0.3610    -0.8850     0.5110 hc         1 TEC       0.001033
     25 H2          -0.3610     0.0000    -1.0210 hc         1 TEC       0.001033
     26 H3          -0.3610     0.8840     0.5110 hc         1 TEC       0.001033
     27 H4           1.8910    -0.8840    -0.5110 hc         1 TEC       0.012700
     28 H5           1.8910     0.8840    -0.5110 hc         1 TEC       0.012700
     29 H6           1.6790    -0.8850     1.9530 hc         1 TEC       0.014700
     30 H7           1.6780     0.8840     1.9530 hc         1 TEC       0.014700
     31 H8           3.9310    -0.8830     0.9320 hc         1 TEC       0.015700
     32 H9           3.9300     0.8850     0.9330 hc         1 TEC       0.015700
     33 H10          3.7190     0.8850     3.3960 hc         1 TEC       0.014700
     34 H11          3.7190    -0.8840     3.3960 hc         1 TEC       0.014700
     35 H12          5.9700     0.8850     2.3740 hc         1 TEC       0.017700
     36 H13          5.9700    -0.8840     2.3740 hc         1 TEC       0.017700
     37 H14          5.7590     0.8850     4.8390 hc         1 TEC       0.013700
     38 H15          5.7590    -0.8840     4.8380 hc         1 TEC       0.013700
     39 H16          8.0110    -0.8830     3.8170 hc         1 TEC       0.031700
     40 H17          8.0100     0.8860     3.8180 hc         1 TEC       0.031700
     41 H18          7.7980     0.8860     6.2810 hc         1 TEC       0.036700
     42 H19          7.7990    -0.8830     6.2810 hc         1 TEC       0.036700
     43 H20         12.1210    -0.8830     6.3290 h1         1 TEC       0.035200
     44 H21         12.1220     0.8860     6.3290 h1         1 TEC       0.035200
     45 H22         11.9710     0.8370     8.8330 h1         1 TEC       0.033700
     46 H23         12.1070    -0.4910    10.8530 h2         1 TEC      -0.001300
     47 H24         11.2460    -2.4460    11.2500 ho         1 TEC       0.439000
     48 H25         14.4380    -2.0800     9.7210 hx         1 TEC       0.126700
     49 H26         14.1660    -0.4900    12.1620 hn         1 TEC       0.226800
     50 H27         15.5270    -1.2410    11.6590 hn         1 TEC       0.226800
     51 H29         14.1120     0.9080    10.1860 h1         1 TEC       0.028700
     52 H30         16.2120     0.9310     9.8900 ho         1 TEC       0.425000
     53 H31         14.2950    -0.6880     7.6040 h1         1 TEC       0.042700
     54 H32         14.9840     1.2550     7.0210 ho         1 TEC       0.421000
     55 H231        14.2050    -2.1120    12.1060 hn         1 TEC       0.226800
@<TRIPOS>BOND
     1     1     2 1   
     2     1    24 1   
     3     1    25 1   
     4     1    26 1   
     5     2     3 1   
     6     2    27 1   
     7     2    28 1   
     8     3     4 1   
     9     3    29 1   
    10     3    30 1   
    11     4     5 1   
    12     4    31 1   
    13     4    32 1   
    14     5     6 1   
    15     5    33 1   
    16     5    34 1   
    17     6     7 1   
    18     6    35 1   
    19     6    36 1   
    20     7     8 1   
    21     7    37 1   
    22     7    38 1   
    23     8     9 1   
    24     8    39 1   
    25     8    40 1   
    26     9    10 1   
    27     9    41 1   
    28     9    42 1   
    29    10    11 2   
    30    10    12 1   
    31    12    13 1   
    32    13    14 1   
    33    13    43 1   
    34    13    44 1   
    35    14    15 1   
    36    14    22 1   
    37    14    45 1   
    38    15    16 1   
    39    16    17 1   
    40    16    18 1   
    41    16    46 1   
    42    17    47 1   
    43    18    19 1   
    44    18    20 1   
    45    18    48 1   
    46    19    49 1   
    47    19    50 1   
    48    19    55 1   
    49    20    21 1   
    50    20    22 1   
    51    20    51 1   
    52    21    52 1   
    53    22    23 1   
    54    22    53 1   
    55    23    54 1   
@<TRIPOS>SUBSTRUCTURE
     1 TEC         1 TEMP              0 ****  ****    0 ROOT
