@<TRIPOS>MOLECULE
TEE
   10     9     1     0     0
SMALL
bcc


@<TRIPOS>ATOM
      1 N           0.2770    0.3180    0.2520 n4        1 TEE     -0.697400
      2 CB          2.5090   -0.6650    0.7840 c2        1 TEE     -0.045400
      3 CA          1.1760   -0.7650    0.5960 c2        1 TEE     -0.227000
      4 SG          3.6480    0.5070    0.7410 sh        1 TEE      0.021600
      5 HN1         0.7660    1.2120    0.1530 hn        1 TEE      0.458133
      6 HN2        -0.4370    0.4110    0.9870 hn        1 TEE      0.458133
      7 HB2         2.9900   -1.6450    1.0440 h4        1 TEE      0.225000
      8 HA          0.6420   -1.7320    0.6950 hx        1 TEE      0.212000
      9 HS          2.9400    1.5710    0.4310 hs        1 TEE      0.135800
     10 HN3        -0.1920    0.0980   -0.6370 hn        1 TEE      0.458133
@<TRIPOS>BOND
     1    1    3 1   
     2    1    5 1   
     3    1    6 1   
     4    1   10 1   
     5    2    3 2   
     6    2    4 1   
     7    2    7 1   
     8    3    8 1   
     9    4    9 1   
@<TRIPOS>SUBSTRUCTURE
     1 TEE         1 TEMP              0 ****  ****    0 ROOT
