@<TRIPOS>MOLECULE
molecule
   10     9     1     0     0
SMALL
bcc


@<TRIPOS>ATOM
      1 N            0.0000     0.0000     0.0000 nz         1 TEE      -0.626400
      2 CB           2.1680     0.0000     1.0650 c2         1 TEE       0.047600
      3 CA           1.3580     0.0000     0.0000 c2         1 TEE      -0.255000
      4 SG           3.8890     0.0010     0.9140 sh         1 TEE      -0.114400
      5 HN1         -0.3340    -0.0000    -0.9440 hn         1 TEE       0.454467
      6 HN2         -0.3340     0.8170     0.4710 hn         1 TEE       0.454467
      7 HB2          1.7340    -0.0000     2.0580 h4         1 TEE       0.151000
      8 HA           1.8270     0.0010    -0.9770 hx         1 TEE       0.202000
      9 HS           4.4390    -0.0020     2.1220 hs         1 TEE       0.232800
     10 HN3         -0.3340    -0.8170     0.4720 hn         1 TEE       0.454467
@<TRIPOS>BOND
     1     1     3 1
     2     1     5 1
     3     1     6 1
     4     2     3 2
     5     2     4 1
     6     2     7 1
     7     3     8 1
     8     4     9 1
     9    10     1 1
@<TRIPOS>SUBSTRUCTURE
     1 TEE         1 TEMP              0 ****  ****    0 ROOT
