@<TRIPOS>MOLECULE
molecule
   22    21     1     0     0
SMALL
bcc


@<TRIPOS>ATOM
      1 CAB          0.0000     0.0000     0.0000 c          1 TEG       0.896600
      2 CAC          1.5060     0.0000     0.0000 c3         1 TEG       0.025400
      3 CAF          3.4080     0.0000     1.4590 c3         1 TEG       0.136400
      4 CAG          3.8030     0.0010     2.9370 c3         1 TEG       0.141400
      5 CAI          3.6980    -1.3220     4.9330 c3         1 TEG       0.143400
      6 CAJ          3.1970    -2.6620     5.4760 c3         1 TEG       0.142400
      7 OAA         -0.6040     0.0000     1.0480 o          1 TEG      -0.838300
      8 OAD         -0.6730     0.0050    -1.1620 o          1 TEG      -0.838300
      9 OAE          1.9840    -0.0000     1.3470 os         1 TEG      -0.388600
     10 OAH          3.3760    -1.2210     3.5450 os         1 TEG      -0.391600
     11 OAK          3.9070    -3.7280     4.8440 oh         1 TEG      -0.599800
     12 H1           1.8670     0.8840    -0.5110 h1         1 TEG       0.009200
     13 H2           1.8670    -0.8840    -0.5110 h1         1 TEG       0.009200
     14 H3           3.8080    -0.8840     0.9780 h1         1 TEG       0.015700
     15 H4           3.8080     0.8850     0.9780 h1         1 TEG       0.015700
     16 H5           4.8790     0.0900     3.0230 h1         1 TEG       0.017200
     17 H6           3.3300     0.8370     3.4370 h1         1 TEG       0.017200
     18 H7           4.7720    -1.2600     5.0600 h1         1 TEG       0.021200
     19 H8           3.2230    -0.5130     5.4740 h1         1 TEG       0.021200
     20 H9           3.3620    -2.7020     6.5460 h1         1 TEG       0.026700
     21 H10          2.1380    -2.7610     5.2700 h1         1 TEG       0.026700
     22 H12          3.6420    -4.5500     5.2230 ho         1 TEG       0.391000
@<TRIPOS>BOND
     1    11     6 1
     2     9     2 1
     3     9     3 1
     4     2     1 1
     5     4     3 1
     6     4    10 1
     7     6     5 1
     8     5    10 1
     9     1     7 1
    10     1     8 1
    11     2    12 1
    12     2    13 1
    13     3    14 1
    14     3    15 1
    15     4    16 1
    16     4    17 1
    17     5    18 1
    18     5    19 1
    19     6    20 1
    20     6    21 1
    21    11    22 1
@<TRIPOS>SUBSTRUCTURE
     1 TEG         1 TEMP              0 ****  ****    0 ROOT
