@<TRIPOS>MOLECULE
TEG
   22    21     1     0     0
SMALL
bcc


@<TRIPOS>ATOM
      1 CAB         0.4890    1.1900   -0.6370 c         1 TEG      0.924600
      2 CAC         1.1750   -0.0950   -0.0960 c3        1 TEG      0.003400
      3 CAF         2.3450   -0.9230    1.7760 c3        1 TEG      0.128400
      4 CAG         2.8420   -0.4530    3.1390 c3        1 TEG      0.127400
      5 CAI         3.8370   -1.3060    5.1090 c3        1 TEG      0.091400
      6 CAJ         4.3910   -2.6100    5.6730 c3        1 TEG      0.132400
      7 OAA        -0.7330    1.3490   -0.3730 o         1 TEG     -0.830800
      8 OAD         1.1850    1.9550   -1.3580 o         1 TEG     -0.830800
      9 OAE         1.7080    0.2030    1.1920 os        1 TEG     -0.398600
     10 OAH         3.3870   -1.6030    3.7920 os        1 TEG     -0.444600
     11 OAK         5.5310   -3.0490    4.9620 oh        1 TEG     -0.611800
     12 H1          2.0060   -0.4090   -0.7790 h1        1 TEG      0.004700
     13 H2          0.4260   -0.9250   -0.0080 h1        1 TEG      0.004700
     14 H3          1.6200   -1.7720    1.8930 h1        1 TEG      0.021200
     15 H4          3.2030   -1.2650    1.1390 h1        1 TEG      0.021200
     16 H5          1.9950   -0.0370    3.7440 h1        1 TEG      0.040200
     17 H6          3.6370    0.3290    3.0260 h1        1 TEG      0.040200
     18 H7          2.9810   -0.9400    5.7340 h1        1 TEG      0.034700
     19 H8          4.6350   -0.5190    5.0680 h1        1 TEG      0.034700
     20 H9          4.7440   -2.4540    6.7260 h1        1 TEG      0.044200
     21 H10         3.5990   -3.4060    5.6480 h1        1 TEG      0.044200
     22 H12         5.2950   -3.0440    4.0240 ho        1 TEG      0.419000
@<TRIPOS>BOND
     1    1    2 1   
     2    1    7 1   
     3    1    8 1   
     4    2    9 1   
     5    2   12 1   
     6    2   13 1   
     7    3    4 1   
     8    3    9 1   
     9    3   14 1   
    10    3   15 1   
    11    4   10 1   
    12    4   16 1   
    13    4   17 1   
    14    5    6 1   
    15    5   10 1   
    16    5   18 1   
    17    5   19 1   
    18    6   11 1   
    19    6   20 1   
    20    6   21 1   
    21   11   22 1   
@<TRIPOS>SUBSTRUCTURE
     1 TEG         1 TEMP              0 ****  ****    0 ROOT
