@<TRIPOS>MOLECULE
TEI
   37    38     1     0     0
SMALL
bcc


@<TRIPOS>ATOM
      1 S1           0.0000     0.0000     0.0000 ss         1 TEI      -0.345300
      2 C2           1.7360     0.0000     0.0000 cc         1 TEI       0.400900
      3 N3           2.0230     0.0000     1.2950 nd         1 TEI      -0.573000
      4 C4           1.0870     0.0110     2.2030 cd         1 TEI       0.253600
      5 C5          -0.2350     0.0080     1.7720 cc         1 TEI       0.035000
      6 C6           2.6600    -0.0050    -1.1520 ca         1 TEI      -0.086500
      7 C7           2.1550    -0.0120    -2.4490 ca         1 TEI      -0.039000
      8 C8           3.0320    -0.0120    -3.5320 ca         1 TEI      -0.023000
      9 C9           4.4170    -0.0160    -3.3070 ca         1 TEI       0.143100
     10 C10          4.9080    -0.0090    -2.0100 ca         1 TEI      -0.233000
     11 C11          4.0420    -0.0040    -0.9390 ca         1 TEI      -0.026000
     12 C12          2.5220    -0.0190    -4.8700 cg         1 TEI       0.265800
     13 N13          2.1290    -0.0400    -5.9360 n1         1 TEI      -0.417800
     14 O14          5.2750    -0.0210    -4.3580 os         1 TEI      -0.281900
     15 C15          6.5950    -0.0180    -3.8130 c3         1 TEI       0.184400
     16 C16          7.6170    -0.0230    -4.9520 c3         1 TEI      -0.132700
     17 C17          9.0310    -0.0200    -4.3670 c3         1 TEI       0.014900
     18 C18          7.4220    -1.2760    -5.8060 c3         1 TEI       0.014900
     19 C19          1.4260     0.0170     3.6710 c3         1 TEI      -0.008400
     20 C20         -1.4720     0.0100     2.5520 c          1 TEI       1.002200
     21 O21         -2.6660     0.0070     1.9230 o          1 TEI      -0.854300
     22 O22         -1.4260     0.0160     3.7660 o          1 TEI      -0.854300
     23 H7           1.0850     0.0020    -2.6130 ha         1 TEI       0.133000
     24 H10          5.9770     0.0370    -1.8360 ha         1 TEI       0.132000
     25 H11          4.4350     0.0630     0.0690 ha         1 TEI       0.125000
     26 H151         6.7250     0.8580    -3.1890 h1         1 TEI       0.015700
     27 H152         6.7420    -0.9110    -3.2170 h1         1 TEI       0.015700
     28 H16          7.1570     0.3690    -5.8510 hc         1 TEI       0.087700
     29 H171         9.1330    -0.8370    -3.6640 hc         1 TEI       0.003033
     30 H172         9.7520    -0.1390    -5.1670 hc         1 TEI       0.003033
     31 H173         9.2090     0.9200    -3.8580 hc         1 TEI       0.003033
     32 H181         7.5730    -2.1570    -5.1940 hc         1 TEI       0.003033
     33 H182         8.1380    -1.2740    -6.6190 hc         1 TEI       0.003033
     34 H183         6.4170    -1.2850    -6.2100 hc         1 TEI       0.003033
     35 H191         0.9880     0.8900     4.1390 hc         1 TEI       0.010033
     36 H192         2.5020     0.0440     3.7930 hc         1 TEI       0.010033
     37 H193         1.0320    -0.8780     4.1370 hc         1 TEI       0.010033
@<TRIPOS>BOND
     1     1     2 1   
     2     1     5 1   
     3     2     3 2   
     4     2     6 1   
     5     3     4 1   
     6     4     5 2   
     7     4    19 1   
     8     5    20 1   
     9     6     7 ar  
    10     6    11 ar  
    11     7     8 ar  
    12     7    23 1   
    13     8     9 ar  
    14     8    12 1   
    15     9    10 ar  
    16     9    14 1   
    17    10    11 ar  
    18    10    24 1   
    19    11    25 1   
    20    12    13 3   
    21    14    15 1   
    22    15    16 1   
    23    15    26 1   
    24    15    27 1   
    25    16    17 1   
    26    16    18 1   
    27    16    28 1   
    28    17    29 1   
    29    17    30 1   
    30    17    31 1   
    31    18    32 1   
    32    18    33 1   
    33    18    34 1   
    34    19    35 1   
    35    19    36 1   
    36    19    37 1   
    37    20    21 1   
    38    20    22 1   
@<TRIPOS>SUBSTRUCTURE
     1 TEI         1 TEMP              0 ****  ****    0 ROOT
