@<TRIPOS>MOLECULE
molecule
   69    72     1     0     0
SMALL
bcc


@<TRIPOS>ATOM
      1 O21          0.0000     0.0000     0.0000 o          1 TEJ      -0.575500
      2 C17          1.2150     0.0000     0.0000 c          1 TEJ       0.734800
      3 C18          2.0430     0.0000     1.2120 ce         1 TEJ      -0.242400
      4 C20          1.6120    -0.0010     2.4720 c2         1 TEJ      -0.113000
      5 C19          3.4850     0.0010     0.7480 c3         1 TEJ      -0.082200
      6 C15          3.3840     0.0010    -0.7860 c3         1 TEJ       0.142100
      7 O16          1.9700    -0.0060    -1.1060 os         1 TEJ      -0.387900
      8 C12          4.0520     1.2540    -1.3550 c3         1 TEJ      -0.094400
      9 C10          4.0540     1.1810    -2.8830 c3         1 TEJ      -0.072700
     10 C11          4.9330     0.0140    -3.3370 c3         1 TEJ      -0.095100
     11 C7           4.6080     2.4880    -3.4560 c3         1 TEJ      -0.054700
     12 C8           4.5540     2.4630    -5.0060 c3         1 TEJ      -0.078400
     13 C9           3.7120     3.6980    -5.4330 c3         1 TEJ      -0.078400
     14 C5           3.8720     4.6460    -4.2410 c3         1 TEJ      -0.032500
     15 C6           3.7280     3.6590    -3.0460 c3         1 TEJ      -0.066000
     16 C22          2.2740     3.1900    -2.9560 c3         1 TEJ      -0.095100
     17 C4           2.8030     5.6800    -4.0550 c2         1 TEJ      -0.097400
     18 C3           2.8560     6.4370    -2.7360 c3         1 TEJ      -0.043200
     19 C2           2.9590     5.4680    -1.5590 c3         1 TEJ      -0.079400
     20 C1           4.0770     4.4110    -1.7840 c3         1 TEJ      -0.066400
     21 C23          1.8730     5.9200    -4.9780 ce         1 TEJ      -0.155000
     22 C24          0.8510     6.9440    -4.7410 ce         1 TEJ      -0.120000
     23 C25         -0.0900     7.1870    -5.6760 cf         1 TEJ      -0.079200
     24 C26         -1.1630     8.2370    -5.4690 c3         1 TEJ      -0.038200
     25 C27         -2.5140     7.6290    -5.8590 c3         1 TEJ       0.152100
     26 O34         -3.5370     8.6180    -5.7200 oh         1 TEJ      -0.611800
     27 C73         -2.4670     7.1460    -7.3080 c3         1 TEJ      -0.114400
     28 C29         -1.4850     5.9760    -7.4340 c3         1 TEJ       0.189300
     29 O32         -1.9330     4.8830    -6.6300 oh         1 TEJ      -0.596800
     30 C30         -0.1220     6.4450    -6.9540 cf         1 TEJ      -0.078200
     31 C31          0.9870     6.1940    -7.6490 c2         1 TEJ      -0.208000
     32 H31          1.9470     6.5390    -7.2820 ha         1 TEJ       0.122000
     33 H20          2.3240    -0.0010     3.2880 ha         1 TEJ       0.132000
     34 H20A         0.5480    -0.0020     2.6800 ha         1 TEJ       0.132000
     35 H19          3.9940    -0.8920     1.0930 hc         1 TEJ       0.067700
     36 H51          3.9930     0.8930     1.0930 hc         1 TEJ       0.067700
     37 H15          3.8550    -0.8890    -1.1850 h1         1 TEJ       0.077700
     38 H12          3.5030     2.1320    -1.0360 hc         1 TEJ       0.061200
     39 H12A         5.0710     1.3150    -0.9950 hc         1 TEJ       0.061200
     40 H10          3.0420     1.0310    -3.2390 hc         1 TEJ       0.080700
     41 H11          5.3500    -0.4830    -2.4700 hc         1 TEJ       0.034700
     42 H11A         4.3340    -0.6900    -3.9030 hc         1 TEJ       0.034700
     43 H11B         5.7360     0.3870    -3.9600 hc         1 TEJ       0.034700
     44 H7           5.6250     2.6500    -3.1200 hc         1 TEJ       0.050700
     45 H8           5.5550     2.5380    -5.4130 hc         1 TEJ       0.044200
     46 H8A          4.0740     1.5530    -5.3460 hc         1 TEJ       0.044200
     47 H9           2.6720     3.4250    -5.5670 hc         1 TEJ       0.049700
     48 H9A          4.1180     4.1450    -6.3330 hc         1 TEJ       0.049700
     49 H5           4.8550     5.1020    -4.2420 hc         1 TEJ       0.063700
     50 H22          1.6190     3.9690    -3.3280 hc         1 TEJ       0.045033
     51 H22A         2.1450     2.2950    -3.5520 hc         1 TEJ       0.045033
     52 H22B         2.0270     2.9740    -1.9230 hc         1 TEJ       0.045033
     53 H3           1.9550     7.0300    -2.6300 hc         1 TEJ       0.049200
     54 H3A          3.7210     7.0900    -2.7350 hc         1 TEJ       0.049200
     55 H2           2.0110     4.9580    -1.4390 hc         1 TEJ       0.044700
     56 H2A          3.1810     6.0290    -0.6590 hc         1 TEJ       0.044700
     57 H1           4.1100     3.7270    -0.9450 hc         1 TEJ       0.041700
     58 H1A          5.0330     4.9060    -1.9030 hc         1 TEJ       0.041700
     59 H23          1.8780     5.3650    -5.9080 ha         1 TEJ       0.147000
     60 H24          0.8520     7.5060    -3.8150 ha         1 TEJ       0.134000
     61 H26         -0.9570     9.0960    -6.0960 hc         1 TEJ       0.058700
     62 H26A        -1.1850     8.5340    -4.4280 hc         1 TEJ       0.058700
     63 H27         -2.7290     6.7900    -5.2090 h1         1 TEJ       0.053700
     64 HO34        -4.2530     8.2620    -5.2200 ho         1 TEJ       0.402000
     65 H73         -3.4550     6.8190    -7.6090 hc         1 TEJ       0.054700
     66 H73A        -2.1410     7.9580    -7.9470 hc         1 TEJ       0.054700
     67 H29         -1.4190     5.6690    -8.4700 h1         1 TEJ       0.036700
     68 HO32        -2.3970     4.2650    -7.1690 ho         1 TEJ       0.401000
     69 H31A         0.9300     5.6480    -8.5830 ha         1 TEJ       0.122000
@<TRIPOS>BOND
     1     1     2 2
     2     2     7 1
     3     3     2 1
     4     3     5 1
     5     4     3 2
     6     5     6 1
     7     7     6 1
     8     8     6 1
     9     8     9 1
    10     9    10 1
    11    11     9 1
    12    12    11 1
    13    13    12 1
    14    13    14 1
    15    15    11 1
    16    15    14 1
    17    15    20 1
    18    16    15 1
    19    17    14 1
    20    17    18 1
    21    18    19 1
    22    19    20 1
    23    21    17 2
    24    22    21 1
    25    23    22 2
    26    24    23 1
    27    25    24 1
    28    25    26 1
    29    27    25 1
    30    27    28 1
    31    28    30 1
    32    29    28 1
    33    30    23 1
    34    31    30 2
    35    31    32 1
    36     4    33 1
    37     4    34 1
    38     5    35 1
    39     5    36 1
    40     6    37 1
    41     8    38 1
    42     8    39 1
    43     9    40 1
    44    10    41 1
    45    10    42 1
    46    10    43 1
    47    11    44 1
    48    12    45 1
    49    12    46 1
    50    13    47 1
    51    13    48 1
    52    14    49 1
    53    16    50 1
    54    16    51 1
    55    16    52 1
    56    18    53 1
    57    18    54 1
    58    19    55 1
    59    19    56 1
    60    20    57 1
    61    20    58 1
    62    21    59 1
    63    22    60 1
    64    24    61 1
    65    24    62 1
    66    25    63 1
    67    26    64 1
    68    27    65 1
    69    27    66 1
    70    28    67 1
    71    29    68 1
    72    31    69 1
@<TRIPOS>SUBSTRUCTURE
     1 TEJ         1 TEMP              0 ****  ****    0 ROOT
