@<TRIPOS>MOLECULE
TEJ
   69    72     1     0     0
SMALL
bcc


@<TRIPOS>ATOM
      1 O21         0.6420   -0.0080    1.0050 o         1 TEJ     -0.565500
      2 C17         1.8530   -0.1210    0.8560 c         1 TEJ      0.715800
      3 C18         2.9720   -0.3030    1.8080 ce        1 TEJ     -0.203400
      4 C20         2.8470   -0.3940    3.1290 c2        1 TEJ     -0.122000
      5 C19         4.2280   -0.3590    1.0010 c3        1 TEJ     -0.075200
      6 C15         3.7620   -0.2370   -0.4650 c3        1 TEJ      0.135100
      7 O16         2.3170   -0.0790   -0.4450 os        1 TEJ     -0.409900
      8 C12         4.3720    0.9600   -1.1750 c3        1 TEJ     -0.088400
      9 C10         4.0960    0.9390   -2.6720 c3        1 TEJ     -0.058700
     10 C11         5.0550   -0.0330   -3.3410 c3        1 TEJ     -0.094100
     11 C7          4.2320    2.3170   -3.3170 c3        1 TEJ     -0.050700
     12 C8          4.0220    2.2060   -4.8430 c3        1 TEJ     -0.078400
     13 C9          3.2550    3.4410   -5.3080 c3        1 TEJ     -0.075400
     14 C5          3.2830    4.3770   -4.1110 c3        1 TEJ     -0.034500
     15 C6          3.2460    3.4290   -2.8770 c3        1 TEJ     -0.039000
     16 C22         1.8620    2.8490   -2.6520 c3        1 TEJ     -0.088100
     17 C4          2.2880    5.4730   -3.9820 c2        1 TEJ     -0.082400
     18 C3          2.5420    6.3020   -2.7650 c3        1 TEJ     -0.043200
     19 C2          2.7580    5.4780   -1.5080 c3        1 TEJ     -0.074400
     20 C1          3.6740    4.2780   -1.6860 c3        1 TEJ     -0.064400
     21 C23         1.3370    5.7220   -4.8970 ce        1 TEJ     -0.147000
     22 C24         0.3410    6.7650   -4.8130 ce        1 TEJ     -0.108000
     23 C25        -0.3010    7.3080   -5.8690 cf        1 TEJ     -0.074200
     24 C26        -1.3430    8.3560   -5.6540 c3        1 TEJ     -0.035200
     25 C27        -2.5970    8.0500   -6.4680 c3        1 TEJ      0.146100
     26 O34        -3.4860    9.1410   -6.2610 oh        1 TEJ     -0.599800
     27 C73        -2.2570    7.9010   -7.9460 c3        1 TEJ     -0.146400
     28 C29        -1.2360    6.7880   -8.1610 c3        1 TEJ      0.186300
     29 O32        -1.7940    5.5050   -7.8920 oh        1 TEJ     -0.588800
     30 C30        -0.0360    6.9520   -7.2610 cf        1 TEJ     -0.069200
     31 C31         1.2000    6.7930   -7.7520 c2        1 TEJ     -0.193000
     32 H31         1.3850    6.5210   -8.7990 ha        1 TEJ      0.119500
     33 H20         1.8650   -0.3380    3.6220 ha        1 TEJ      0.133000
     34 H20A        3.7120   -0.5290    3.7920 ha        1 TEJ      0.133000
     35 H19         4.7700   -1.3240    1.1600 hc        1 TEJ      0.069700
     36 H51         4.9180    0.4780    1.2740 hc        1 TEJ      0.069700
     37 H15         3.9470   -1.1890   -1.0300 h1        1 TEJ      0.072700
     38 H12         3.9430    1.8880   -0.7200 hc        1 TEJ      0.056200
     39 H12A        5.4780    0.9620   -0.9910 hc        1 TEJ      0.056200
     40 H10         3.0410    0.5720   -2.8260 hc        1 TEJ      0.073700
     41 H11         6.0960    0.3730   -3.3280 hc        1 TEJ      0.033367
     42 H11A        5.0530   -1.0140   -2.8080 hc        1 TEJ      0.033367
     43 H11B        4.7630   -0.2170   -4.4020 hc        1 TEJ      0.033367
     44 H7          5.2740    2.6900   -3.1160 hc        1 TEJ      0.042700
     45 H8          5.0120    2.1300   -5.3560 hc        1 TEJ      0.042200
     46 H8A         3.4350    1.2870   -5.0950 hc        1 TEJ      0.042200
     47 H9          3.7310    3.9090   -6.2030 hc        1 TEJ      0.046700
     48 H9A         2.2050    3.1670   -5.5810 hc        1 TEJ      0.046700
     49 H5          4.3000    4.8770   -4.1140 hc        1 TEJ      0.050700
     50 H22         1.5700    2.2000   -3.5140 hc        1 TEJ      0.043700
     51 H22A        1.8480    2.2300   -1.7200 hc        1 TEJ      0.043700
     52 H22B        1.1030    3.6620   -2.5580 hc        1 TEJ      0.043700
     53 H3          1.6980    7.0180   -2.5820 hc        1 TEJ      0.046200
     54 H3A         3.4610    6.9210   -2.9610 hc        1 TEJ      0.046200
     55 H2          3.1900    6.1450   -0.7150 hc        1 TEJ      0.041700
     56 H2A         1.7620    5.1210   -1.1320 hc        1 TEJ      0.041700
     57 H1          3.6460    3.6870   -0.7350 hc        1 TEJ      0.037700
     58 H1A         4.7300    4.6240   -1.8370 hc        1 TEJ      0.037700
     59 H23         1.2700    5.0860   -5.8010 ha        1 TEJ      0.137000
     60 H24         0.0730    7.1060   -3.7960 ha        1 TEJ      0.125000
     61 H26        -1.6250    8.4320   -4.5710 hc        1 TEJ      0.062200
     62 H26A       -0.9380    9.3560   -5.9650 hc        1 TEJ      0.062200
     63 H27        -3.0730    7.0980   -6.0970 h1        1 TEJ      0.049700
     64 HO34       -4.2900    8.9400   -6.7520 ho        1 TEJ      0.398000
     65 H73        -3.1880    7.6750   -8.5270 hc        1 TEJ      0.052700
     66 H73A       -1.8390    8.8660   -8.3310 hc        1 TEJ      0.052700
     67 H29        -0.9050    6.8090   -9.2420 h1        1 TEJ      0.034700
     68 HO32       -2.6020    5.4410   -8.4150 ho        1 TEJ      0.396000
     69 H31A        2.0960    6.9300   -7.1320 ha        1 TEJ      0.119500
@<TRIPOS>BOND
     1    1    2 2   
     2    2    3 1   
     3    2    7 1   
     4    3    4 2   
     5    3    5 1   
     6    4   33 1   
     7    4   34 1   
     8    5    6 1   
     9    5   35 1   
    10    5   36 1   
    11    6    7 1   
    12    6    8 1   
    13    6   37 1   
    14    8    9 1   
    15    8   38 1   
    16    8   39 1   
    17    9   10 1   
    18    9   11 1   
    19    9   40 1   
    20   10   41 1   
    21   10   42 1   
    22   10   43 1   
    23   11   12 1   
    24   11   15 1   
    25   11   44 1   
    26   12   13 1   
    27   12   45 1   
    28   12   46 1   
    29   13   14 1   
    30   13   47 1   
    31   13   48 1   
    32   14   15 1   
    33   14   17 1   
    34   14   49 1   
    35   15   16 1   
    36   15   20 1   
    37   16   50 1   
    38   16   51 1   
    39   16   52 1   
    40   17   18 1   
    41   17   21 2   
    42   18   19 1   
    43   18   53 1   
    44   18   54 1   
    45   19   20 1   
    46   19   55 1   
    47   19   56 1   
    48   20   57 1   
    49   20   58 1   
    50   21   22 1   
    51   21   59 1   
    52   22   23 2   
    53   22   60 1   
    54   23   24 1   
    55   23   30 1   
    56   24   25 1   
    57   24   61 1   
    58   24   62 1   
    59   25   26 1   
    60   25   27 1   
    61   25   63 1   
    62   26   64 1   
    63   27   28 1   
    64   27   65 1   
    65   27   66 1   
    66   28   29 1   
    67   28   30 1   
    68   28   67 1   
    69   29   68 1   
    70   30   31 2   
    71   31   32 1   
    72   31   69 1   
@<TRIPOS>SUBSTRUCTURE
     1 TEJ         1 TEMP              0 ****  ****    0 ROOT
