@<TRIPOS>MOLECULE
TEM
   22    23     1     0     0
SMALL
bcc


@<TRIPOS>ATOM
      1 O1           0.0000     0.0000     0.0000 oh         1 TEM      -0.310000
      2 C2           1.4280     0.0000     0.0000 c3         1 TEM       0.074000
      3 C3           1.9380     0.0000     1.4420 c3         1 TEM      -0.125000
      4 N4           1.4500     1.1940     2.1340 ny         1 TEM       0.258000
      5 C5           1.7790     1.4100     3.4380 c2         1 TEM      -0.206000
      6 C6           1.3280     2.5160     4.0770 c2         1 TEM      -0.591000
      7 C7           1.6660     2.7380     5.4190 c3         1 TEM       0.401000
      8 O8           1.2620     3.7290     5.9930 o          1 TEM      -0.384000
      9 C9           1.9380    -1.2480    -0.7220 c3         1 TEM      -0.203000
     10 C10          1.4350    -1.2480    -2.1420 c2         1 TEM       0.269000
     11 O11          2.2200    -1.2490    -3.0610 o          1 TEM      -0.303000
     12 HO1         -0.3140     0.7320    -0.5050 ho         1 TEM       0.202000
     13 H2           1.7890     0.8850    -0.5100 h1         1 TEM       0.048000
     14 H31          1.5780    -0.8850     1.9520 hx         1 TEM       0.095500
     15 H32          3.0210     0.0000     1.4420 hx         1 TEM       0.095500
     16 HN4          0.8540     1.8410     1.6550 hn         1 TEM       0.052000
     17 H5           2.2470     1.9100     2.5980 DU         1 TEM       0.212000
     18 H6           2.2880     2.8910     4.4120 DU         1 TEM       0.136000
     19 H7           2.2630     2.0090     5.9540 h1         1 TEM       0.033000
     20 H91          1.5770    -2.1330    -0.2120 hc         1 TEM       0.090000
     21 H92          3.0210    -1.2490    -0.7230 hc         1 TEM       0.090000
     22 H10          0.3710    -1.2910    -2.3400 h4         1 TEM       0.066000
@<TRIPOS>BOND
     1     1     2 1   
     2     1    12 1   
     3     2     3 1   
     4     2     9 1   
     5     2    13 1   
     6     3     4 1   
     7     3    14 1   
     8     3    15 1   
     9     4     5 1   
    10     4    16 1   
    11     4    17 1   
    12     5     6 1   
    13     5    17 1   
    14     6     7 1   
    15     6    18 1   
    16     7     8 1   
    17     7    18 1   
    18     7    19 1   
    19     9    10 1   
    20     9    20 1   
    21     9    21 1   
    22    10    11 1   
    23    10    22 1   
@<TRIPOS>SUBSTRUCTURE
     1 TEM         1 TEMP              0 ****  ****    0 ROOT
