@<TRIPOS>MOLECULE
molecule
   22    21     1     0     0
SMALL
bcc


@<TRIPOS>ATOM
      1 O1           0.0000     0.0000     0.0000 oh         1 TEM      -0.600800
      2 C2           1.4280     0.0000     0.0000 c3         1 TEM       0.139100
      3 C3           1.9380     0.0000     1.4420 c3         1 TEM       0.217800
      4 N4           1.4500     1.1940     2.1340 nu         1 TEM      -0.794000
      5 C5           1.7790     1.4100     3.4380 c2         1 TEM       0.160000
      6 C6           1.3280     2.5160     4.0770 ce         1 TEM      -0.428200
      7 C7           1.6660     2.7380     5.4190 c          1 TEM       0.588100
      8 O8           1.2620     3.7290     5.9930 o          1 TEM      -0.557100
      9 C9           1.9380    -1.2480    -0.7220 c3         1 TEM      -0.216400
     10 C10          1.4350    -1.2480    -2.1420 c          1 TEM       0.566900
     11 O11          2.2200    -1.2490    -3.0610 o          1 TEM      -0.515100
     12 HO1         -0.3140     0.7390    -0.4940 ho         1 TEM       0.408000
     13 H2           1.7890     0.8850    -0.5100 h1         1 TEM       0.045700
     14 H31          1.5780    -0.8850     1.9520 h1         1 TEM       0.054200
     15 H32          3.0210     0.0000     1.4420 h1         1 TEM       0.054200
     16 HN4          0.8830     1.8580     1.6450 hn         1 TEM       0.445800
     17 H5           2.4020     0.6970     3.9640 h4         1 TEM       0.144000
     18 H6           0.7050     3.2290     3.5510 ha         1 TEM       0.147000
     19 H7           2.2890     2.0240     5.9460 h4         1 TEM      -0.028800
     20 H91          1.5770    -2.1330    -0.2120 hc         1 TEM       0.080200
     21 H92          3.0210    -1.2490    -0.7230 hc         1 TEM       0.080200
     22 H10          0.3710    -1.2910    -2.3400 h4         1 TEM       0.009200
@<TRIPOS>BOND
     1     1     2 1
     2     1    12 1
     3     2     3 1
     4     2     9 1
     5     2    13 1
     6     3     4 1
     7     3    14 1
     8     3    15 1
     9     4     5 1
    10     4    16 1
    11     5     6 2
    12     5    17 1
    13     6     7 1
    14     6    18 1
    15     7     8 2
    16     7    19 1
    17     9    10 1
    18     9    20 1
    19     9    21 1
    20    10    11 2
    21    10    22 1
@<TRIPOS>SUBSTRUCTURE
     1 TEM         1 TEMP              0 ****  ****    0 ROOT
