@<TRIPOS>MOLECULE
molecule
   26    25     1     0     0
SMALL
bcc


@<TRIPOS>ATOM
      1 P1           0.0000     0.0000     0.0000 p5         1 TEN       1.497500
      2 O1           1.4790     0.0000     0.0000 o          1 TEN      -0.779300
      3 O2          -0.5360     0.0000     1.5170 os         1 TEN      -0.518533
      4 C1          -0.0300     1.1830     2.1350 c3         1 TEN       0.119400
      5 C2          -0.5050     1.2460     3.5880 c3         1 TEN      -0.086433
      6 O3          -0.5360    -1.3130    -0.7590 os         1 TEN      -0.518533
      7 C3          -0.0300    -1.2560    -2.0930 c3         1 TEN       0.119400
      8 C4          -0.5050    -2.4820    -2.8740 c3         1 TEN      -0.086433
      9 O4          -0.5360     1.3140    -0.7580 os         1 TEN      -0.518533
     10 C5          -1.9640     1.2570    -0.7250 c3         1 TEN       0.119400
     11 C6          -2.5400     2.4840    -1.4330 c3         1 TEN      -0.086433
     12 H11         -0.3910     2.0530     1.6000 h1         1 TEN       0.050700
     13 H12          1.0530     1.1690     2.1110 h1         1 TEN       0.050700
     14 H21         -0.1510     0.3720     4.1210 hc         1 TEN       0.048478
     15 H22         -0.1140     2.1400     4.0580 hc         1 TEN       0.048478
     16 H23         -1.5880     1.2690     3.6130 hc         1 TEN       0.048478
     17 H31         -0.3910    -0.3570    -2.5780 h1         1 TEN       0.050700
     18 H32          1.0530    -1.2420    -2.0680 h1         1 TEN       0.050700
     19 H41         -0.1510    -3.3820    -2.3850 hc         1 TEN       0.048478
     20 H42         -0.1140    -2.4420    -3.8830 hc         1 TEN       0.048478
     21 H43         -1.5880    -2.4920    -2.9070 hc         1 TEN       0.048478
     22 H51         -2.3010     0.3590    -1.2280 h1         1 TEN       0.050700
     23 H52         -2.3010     1.2430     0.3040 h1         1 TEN       0.050700
     24 H61         -2.2040     2.4990    -2.4630 hc         1 TEN       0.048478
     25 H62         -2.2030     3.3830    -0.9310 hc         1 TEN       0.048478
     26 H63         -3.6230     2.4400    -1.4080 hc         1 TEN       0.048478
@<TRIPOS>BOND
     1     1     2 2
     2     1     3 1
     3     1     6 1
     4     1     9 1
     5     3     4 1
     6     4     5 1
     7     4    12 1
     8     4    13 1
     9     5    14 1
    10     5    15 1
    11     5    16 1
    12     6     7 1
    13     7     8 1
    14     7    17 1
    15     7    18 1
    16     8    19 1
    17     8    20 1
    18     8    21 1
    19     9    10 1
    20    10    11 1
    21    10    22 1
    22    10    23 1
    23    11    24 1
    24    11    25 1
    25    11    26 1
@<TRIPOS>SUBSTRUCTURE
     1 TEN         1 TEMP              0 ****  ****    0 ROOT
