@<TRIPOS>MOLECULE
TEN
   26    25     1     0     0
SMALL
bcc


@<TRIPOS>ATOM
      1 P1         -0.1360    0.8880   -0.5050 p5        1 TEN      1.594500
      2 O1          1.2900    1.1480   -0.6430 o         1 TEN     -0.803300
      3 O2         -0.6470    0.7580    1.0080 os        1 TEN     -0.567867
      4 C1          0.3950    0.6930    1.9660 c3        1 TEN      0.167400
      5 C2         -0.2150    0.6360    3.3440 c3        1 TEN     -0.097100
      6 O3         -0.6280   -0.4910   -1.1550 os        1 TEN     -0.567867
      7 C3          0.4270   -1.3410   -1.5730 c3        1 TEN      0.167400
      8 C4         -0.1650   -2.5700   -2.2170 c3        1 TEN     -0.097100
      9 O4         -1.1540    1.9430   -1.1240 os        1 TEN     -0.567867
     10 C5         -2.5280    1.6320   -0.9550 c3        1 TEN      0.167400
     11 C6         -3.3480    2.7240   -1.5950 c3        1 TEN     -0.097100
     12 H11         1.0040   -0.2250    1.7440 h1        1 TEN      0.044700
     13 H12         1.0460    1.6000    1.8340 h1        1 TEN      0.044700
     14 H21         0.5980    0.5740    4.1050 hc        1 TEN      0.048144
     15 H22        -0.8290    1.5480    3.5350 hc        1 TEN      0.048144
     16 H23        -0.8780   -0.2570    3.4400 hc        1 TEN      0.048144
     17 H31         1.0760   -0.7650   -2.2880 h1        1 TEN      0.044700
     18 H32         1.0340   -1.6020   -0.6630 h1        1 TEN      0.044700
     19 H41        -0.8260   -3.1080   -1.4950 hc        1 TEN      0.048144
     20 H42         0.6580   -3.2500   -2.5400 hc        1 TEN      0.048144
     21 H43        -0.7770   -2.2860   -3.1060 hc        1 TEN      0.048144
     22 H51        -2.7170    0.6350   -1.4400 h1        1 TEN      0.044700
     23 H52        -2.7300    1.5570    0.1490 h1        1 TEN      0.044700
     24 H61        -3.1100    2.8010   -2.6830 hc        1 TEN      0.048144
     25 H62        -4.4320    2.4930   -1.4700 hc        1 TEN      0.048144
     26 H63        -3.1230    3.7080   -1.1190 hc        1 TEN      0.048144
@<TRIPOS>BOND
     1    1    2 2   
     2    1    3 1   
     3    1    6 1   
     4    1    9 1   
     5    3    4 1   
     6    4    5 1   
     7    4   12 1   
     8    4   13 1   
     9    5   14 1   
    10    5   15 1   
    11    5   16 1   
    12    6    7 1   
    13    7    8 1   
    14    7   17 1   
    15    7   18 1   
    16    8   19 1   
    17    8   20 1   
    18    8   21 1   
    19    9   10 1   
    20   10   11 1   
    21   10   22 1   
    22   10   23 1   
    23   11   24 1   
    24   11   25 1   
    25   11   26 1   
@<TRIPOS>SUBSTRUCTURE
     1 TEN         1 TEMP              0 ****  ****    0 ROOT
