@<TRIPOS>MOLECULE
TEO
   12    11     1     0     0
SMALL
bcc


@<TRIPOS>ATOM
      1 C1          0.1590   -0.5420   -0.2260 c         1 TEO      0.894600
      2 O1A        -0.9180   -0.2840    0.4130 o         1 TEO     -0.948300
      3 O1B         0.0860   -1.3410   -1.2270 o         1 TEO     -0.948300
      4 C2          1.5350    0.0100    0.2130 c3        1 TEO      0.228300
      5 O2          1.6870   -0.4440    1.6070 oh        1 TEO     -0.737800
      6 C3          1.7250    1.4450    0.0750 c2        1 TEO     -0.749200
      7 C4          2.9690    2.1150   -0.1690 c         1 TEO      0.921600
      8 O4A         3.0170    3.4190   -0.2390 o         1 TEO     -1.036300
      9 O4B         4.1090    1.5140   -0.3240 o         1 TEO     -1.036300
     10 H2          2.3420   -0.5770   -0.3110 h1        1 TEO      0.004700
     11 HO2         1.4500    0.3150    2.1420 ho        1 TEO      0.360000
     12 H3          0.8290    2.0660    0.1480 ha        1 TEO      0.048000
@<TRIPOS>BOND
     1    1    2 1
     2    1    3 1
     3    1    4 1
     4    4    5 1
     5    4    6 1
     6    4   10 1
     7    5   11 1
     8    6    7 2
     9    6   12 1
    10    7    8 1
    11    7    9 1
@<TRIPOS>SUBSTRUCTURE
     1 TEO         1 TEMP              0 ****  ****    0 ROOT
