@<TRIPOS>MOLECULE
TEP
   21    22     1     0     0
SMALL
bcc


@<TRIPOS>ATOM
      1 C1         -0.0210    0.0900   -0.0090 c3        1 TEP      0.080300
      2 N1          1.4220    0.0450   -0.0540 n         1 TEP     -0.484400
      3 C2          2.0910    0.0440    1.1990 c         1 TEP      0.814500
      4 O2          1.4230    0.0800    2.2560 o         1 TEP     -0.635500
      5 N3          3.5060    0.0040    1.2650 n         1 TEP     -0.417300
      6 C3          4.1880   -0.0010    2.5320 c3        1 TEP      0.090300
      7 C4          4.2180   -0.0370    0.0770 cc        1 TEP      0.487200
      8 C5          3.5360   -0.0360   -1.1820 cd        1 TEP     -0.353200
      9 C6          2.0900    0.0060   -1.2950 c         1 TEP      0.762100
     10 O6          1.4680    0.0080   -2.3730 o         1 TEP     -0.624500
     11 N7          4.5260   -0.0820   -2.1640 na        1 TEP     -0.266900
     12 C8          5.7410   -0.1090   -1.4890 cd        1 TEP      0.448400
     13 N9          5.6060   -0.0830   -0.1350 nc        1 TEP     -0.684000
     14 H11        -0.4280    0.0880   -1.0550 h1        1 TEP      0.063700
     15 H12        -0.3510    1.0190    0.5280 h1        1 TEP      0.063700
     16 H13        -0.4070   -0.8030    0.5510 h1        1 TEP      0.063700
     17 H31         4.7960   -0.9410    2.6270 h1        1 TEP      0.063700
     18 H32         4.8740    0.8860    2.5910 h1        1 TEP      0.063700
     19 H33         3.4380    0.0470    3.3660 h1        1 TEP      0.063700
     20 HN7         4.3590   -0.0920   -3.1370 hn        1 TEP      0.327700
     21 H8          6.7070   -0.1460   -2.0100 h5        1 TEP      0.072100
@<TRIPOS>BOND
     1    1    2 1
     2    1   14 1
     3    1   15 1
     4    1   16 1
     5    2    3 1
     6    2    9 1
     7    3    4 2
     8    3    5 1
     9    5    6 1
    10    5    7 1
    11    6   17 1
    12    6   18 1
    13    6   19 1
    14    7    8 2
    15    7   13 1
    16    8    9 1
    17    8   11 1
    18    9   10 2
    19   11   12 1
    20   11   20 1
    21   12   13 2
    22   12   21 1
@<TRIPOS>SUBSTRUCTURE
     1 TEP         1 TEMP              0 ****  ****    0 ROOT
