@<TRIPOS>MOLECULE
molecule
   42    41     1     0     0
SMALL
bcc


@<TRIPOS>ATOM
      1 N1           0.0000     0.0000     0.0000 nz         1 TER      -0.809600
      2 C2           1.4680     0.0000     0.0000 c3         1 TER       0.091800
      3 C3           1.9790     0.0000     1.4420 c3         1 TER      -0.115400
      4 C4           3.5090    -0.0020     1.4410 c3         1 TER       0.156800
      5 N5           4.0000    -0.0010     2.8250 n7         1 TER      -0.792200
      6 C6           5.4660    -0.0020     2.7540 c3         1 TER       0.145800
      7 C7           6.0470    -0.0020     4.1690 c3         1 TER      -0.083400
      8 C8           7.5740    -0.0040     4.0950 c3         1 TER       0.146800
      9 N9           8.1310    -0.0030     5.4530 n7         1 TER      -0.793200
     10 C10          9.5930    -0.0040     5.3120 c3         1 TER       0.150800
     11 C11         10.2410    -0.0040     6.6970 c3         1 TER      -0.077400
     12 C12         11.7640    -0.0060     6.5490 c3         1 TER      -0.113400
     13 C13         12.4110    -0.0050     7.9350 c3         1 TER       0.092800
     14 N14         13.8730    -0.0050     7.7920 nz         1 TER      -0.810600
     15 HN11        -0.3340    -0.8400     0.4290 hn         1 TER       0.460133
     16 HN12        -0.3340     0.0490    -0.9420 hn         1 TER       0.460133
     17 H21          1.8280     0.8840    -0.5110 hx         1 TER       0.112700
     18 H22          1.8280    -0.8840    -0.5110 hx         1 TER       0.112700
     19 H31          1.6170    -0.8840     1.9530 hc         1 TER       0.074200
     20 H32          1.6190     0.8850     1.9520 hc         1 TER       0.074200
     21 H41          3.8680    -0.8870     0.9310 h1         1 TER       0.048200
     22 H42          3.8710     0.8820     0.9300 h1         1 TER       0.048200
     23 HN5          3.6880    -0.8310     3.2900 hn         1 TER       0.360800
     24 H61          5.8030     0.8820     2.2250 h1         1 TER       0.041200
     25 H62          5.8020    -0.8870     2.2260 h1         1 TER       0.041200
     26 H71          5.7120     0.8830     4.6960 hc         1 TER       0.062700
     27 H72          5.7100    -0.8860     4.6970 hc         1 TER       0.062700
     28 H81          7.9090    -0.8890     3.5680 h1         1 TER       0.038700
     29 H82          7.9110     0.8790     3.5660 h1         1 TER       0.038700
     30 HN9          7.8430     0.8280     5.9310 hn         1 TER       0.358800
     31 H101         9.9020    -0.8900     4.7690 h1         1 TER       0.041200
     32 H102         9.9040     0.8790     4.7680 h1         1 TER       0.041200
     33 H111         9.9300    -0.8880     7.2410 hc         1 TER       0.066200
     34 H112         9.9320     0.8810     7.2400 hc         1 TER       0.066200
     35 H121        12.0740     0.8780     6.0040 hc         1 TER       0.066200
     36 H122        12.0730    -0.8910     6.0060 hc         1 TER       0.066200
     37 H131        12.1020     0.8810     8.4770 hx         1 TER       0.114700
     38 H132        12.1010    -0.8880     8.4790 hx         1 TER       0.114700
     39 HN41        14.2960    -0.0050     8.6990 hn         1 TER       0.459133
     40 HN42        14.1590     0.8110     7.2900 hn         1 TER       0.459133
     41 H13         -0.3340     0.7980     0.5040 hn         1 TER       0.460133
     42 H143        14.1580    -0.8180     7.2830 hn         1 TER       0.459133
@<TRIPOS>BOND
     1     1     2 1
     2     1    15 1
     3     1    16 1
     4     2     3 1
     5     2    17 1
     6     2    18 1
     7     3     4 1
     8     3    19 1
     9     3    20 1
    10     4     5 1
    11     4    21 1
    12     4    22 1
    13     5     6 1
    14     5    23 1
    15     6     7 1
    16     6    24 1
    17     6    25 1
    18     7     8 1
    19     7    26 1
    20     7    27 1
    21     8     9 1
    22     8    28 1
    23     8    29 1
    24     9    10 1
    25     9    30 1
    26    10    11 1
    27    10    31 1
    28    10    32 1
    29    11    12 1
    30    11    33 1
    31    11    34 1
    32    12    13 1
    33    12    35 1
    34    12    36 1
    35    13    14 1
    36    13    37 1
    37    13    38 1
    38    14    39 1
    39    14    40 1
    40    41     1 1
    41    42    14 1
@<TRIPOS>SUBSTRUCTURE
     1 TER         1 TEMP              0 ****  ****    0 ROOT
