@<TRIPOS>MOLECULE
molecule
   49    52     1     0     0
SMALL
bcc


@<TRIPOS>ATOM
      1 C1           0.0000     0.0000     0.0000 c3         1 TES      -0.070400
      2 C2           1.5270     0.0000     0.0000 c3         1 TES      -0.178400
      3 C3           1.9860     0.0000     1.4460 c          1 TES       0.569300
      4 O3           2.7760    -0.8180     1.8690 o          1 TES      -0.523100
      5 C4           1.4180     1.0500     2.3010 ce         1 TES      -0.259200
      6 C5           0.2400     1.5760     1.9810 c2         1 TES      -0.045400
      7 C6          -0.3240     2.6920     2.8440 c3         1 TES      -0.051200
      8 C7          -0.6620     3.8680     1.9210 c3         1 TES      -0.073400
      9 C8          -1.6030     3.4050     0.8090 c3         1 TES      -0.063700
     10 C9          -0.9040     2.3510    -0.0650 c3         1 TES      -0.047700
     11 C10         -0.5780     1.1480     0.8200 c3         1 TES      -0.029800
     12 C11         -1.7870     1.9080    -1.2260 c3         1 TES      -0.085400
     13 C12         -2.2570     3.1030    -2.0710 c3         1 TES      -0.063400
     14 C13         -2.9900     4.0500    -1.1400 c3         1 TES      -0.066000
     15 C14         -1.9520     4.5790    -0.1140 c3         1 TES      -0.068700
     16 C15         -2.7140     5.7360     0.5400 c3         1 TES      -0.074400
     17 C16         -3.4150     6.4180    -0.6670 c3         1 TES      -0.108400
     18 C17         -3.5500     5.3220    -1.7660 c3         1 TES       0.154100
     19 O17         -4.9210     5.1550    -2.1330 oh         1 TES      -0.601800
     20 C18         -4.1040     3.2980    -0.4090 c3         1 TES      -0.085100
     21 C19         -1.9090     0.6540     1.3900 c3         1 TES      -0.096100
     22 H11         -0.3490    -0.9370     0.4160 hc         1 TES       0.055200
     23 H12         -0.3490     0.0890    -1.0220 hc         1 TES       0.055200
     24 H21          1.8930     0.8880    -0.5010 hc         1 TES       0.068200
     25 H22          1.8930    -0.8880    -0.5000 hc         1 TES       0.068200
     26 H4           2.0280     1.5120     3.0680 ha         1 TES       0.151000
     27 H61         -1.2210     2.3490     3.3450 hc         1 TES       0.055700
     28 H62          0.4160     3.0000     3.5730 hc         1 TES       0.055700
     29 H71          0.2500     4.2530     1.4820 hc         1 TES       0.046700
     30 H72         -1.1460     4.6470     2.4980 hc         1 TES       0.046700
     31 H8          -2.5070     2.9890     1.2370 hc         1 TES       0.070700
     32 H9           0.0170     2.7660    -0.4560 hc         1 TES       0.054700
     33 H111        -1.2250     1.2300    -1.8570 hc         1 TES       0.050200
     34 H112        -2.6550     1.3930    -0.8310 hc         1 TES       0.050200
     35 H121        -2.9270     2.7610    -2.8500 hc         1 TES       0.045200
     36 H122        -1.4010     3.6050    -2.5060 hc         1 TES       0.045200
     37 H14         -1.0680     4.9430    -0.6220 hc         1 TES       0.057700
     38 H151        -3.4470     5.3620     1.2440 hc         1 TES       0.047700
     39 H152        -2.0270     6.4230     1.0190 hc         1 TES       0.047700
     40 H161        -4.3950     6.7740    -0.3740 hc         1 TES       0.050700
     41 H162        -2.8090     7.2380    -1.0330 hc         1 TES       0.050700
     42 H17         -2.9600     5.5950    -2.6330 h1         1 TES       0.032700
     43 HO7         -5.1150     5.6970    -2.8800 ho         1 TES       0.399000
     44 H181        -3.7600     2.3040    -0.1500 hc         1 TES       0.044033
     45 H182        -4.3710     3.8350     0.4930 hc         1 TES       0.044033
     46 H183        -4.9720     3.2230    -1.0540 hc         1 TES       0.044033
     47 H191        -1.7240    -0.1490     2.0940 hc         1 TES       0.042367
     48 H192        -2.5340     0.2900     0.5840 hc         1 TES       0.042367
     49 H193        -2.4100     1.4700     1.8960 hc         1 TES       0.042367
@<TRIPOS>BOND
     1     1     2 1
     2     1    11 1
     3     1    22 1
     4     1    23 1
     5     2     3 1
     6     2    24 1
     7     2    25 1
     8     3     4 2
     9     3     5 1
    10     5     6 2
    11     5    26 1
    12     6     7 1
    13     6    11 1
    14     7     8 1
    15     7    27 1
    16     7    28 1
    17     8     9 1
    18     8    29 1
    19     8    30 1
    20     9    10 1
    21     9    15 1
    22     9    31 1
    23    10    11 1
    24    10    12 1
    25    10    32 1
    26    11    21 1
    27    12    13 1
    28    12    33 1
    29    12    34 1
    30    13    14 1
    31    13    35 1
    32    13    36 1
    33    14    15 1
    34    14    18 1
    35    14    20 1
    36    15    16 1
    37    15    37 1
    38    16    17 1
    39    16    38 1
    40    16    39 1
    41    17    18 1
    42    17    40 1
    43    17    41 1
    44    18    19 1
    45    18    42 1
    46    19    43 1
    47    20    44 1
    48    20    45 1
    49    20    46 1
    50    21    47 1
    51    21    48 1
    52    21    49 1
@<TRIPOS>SUBSTRUCTURE
     1 TES         1 TEMP              0 ****  ****    0 ROOT
