@<TRIPOS>MOLECULE
TES
   49    52     1     0     0
SMALL
bcc


@<TRIPOS>ATOM
      1 C1          0.0890   -0.0890    0.1370 c3        1 TES     -0.071400
      2 C2          1.5530    0.2010   -0.0950 c3        1 TES     -0.181400
      3 C3          2.2570    0.4010    1.2180 c         1 TES      0.570300
      4 O3          3.3740   -0.0720    1.4570 o         1 TES     -0.534100
      5 C4          1.5260    1.2490    2.1680 ce        1 TES     -0.264200
      6 C5          0.2270    1.5570    2.0190 c2        1 TES     -0.031400
      7 C6         -0.4180    2.5880    2.8820 c3        1 TES     -0.055200
      8 C7         -0.8330    3.7620    2.0130 c3        1 TES     -0.071400
      9 C8         -1.7230    3.3090    0.8680 c3        1 TES     -0.050700
     10 C9         -1.0640    2.1920    0.0340 c3        1 TES     -0.045700
     11 C10        -0.6540    0.9980    0.9270 c3        1 TES     -0.014800
     12 C11        -1.9580    1.7870   -1.1340 c3        1 TES     -0.074400
     13 C12        -2.4160    2.9560   -1.9940 c3        1 TES     -0.063400
     14 C13        -3.0580    4.0370   -1.1450 c3        1 TES     -0.044000
     15 C14        -2.0250    4.4570   -0.0730 c3        1 TES     -0.067700
     16 C15        -2.5670    5.7690    0.4800 c3        1 TES     -0.068400
     17 C16        -3.2330    6.4440   -0.7210 c3        1 TES     -0.117400
     18 C17        -3.2970    5.3950   -1.8530 c3        1 TES      0.142100
     19 O17        -4.5520    5.3830   -2.5080 oh        1 TES     -0.591800
     20 C18        -4.3770    3.5480   -0.5700 c3        1 TES     -0.077100
     21 C19        -1.8730    0.3180    1.5500 c3        1 TES     -0.087100
     22 H11        -0.4150   -0.2600   -0.8480 hc        1 TES      0.051700
     23 H12         0.0110   -1.0550    0.7090 hc        1 TES      0.051700
     24 H21         2.0260   -0.6440   -0.6620 hc        1 TES      0.070200
     25 H22         1.6800    1.1340   -0.7050 hc        1 TES      0.070200
     26 H4          2.1230    1.6540    3.0010 ha        1 TES      0.148000
     27 H61        -1.3150    2.1510    3.3960 hc        1 TES      0.055200
     28 H62         0.2860    2.9410    3.6800 hc        1 TES      0.055200
     29 H71        -1.3850    4.5140    2.6350 hc        1 TES      0.047200
     30 H72         0.0810    4.2680    1.6050 hc        1 TES      0.047200
     31 H8         -2.6870    2.9280    1.3060 hc        1 TES      0.058700
     32 H9         -0.1100    2.6100   -0.3990 hc        1 TES      0.049700
     33 H111       -1.4010    1.0790   -1.8030 hc        1 TES      0.043700
     34 H112       -2.8560    1.2400   -0.7420 hc        1 TES      0.043700
     35 H121       -1.5370    3.3840   -2.5450 hc        1 TES      0.046200
     36 H122       -3.1490    2.5880   -2.7580 hc        1 TES      0.046200
     37 H14        -1.0620    4.7070   -0.6110 hc        1 TES      0.047700
     38 H151       -3.3090    5.5830    1.2950 hc        1 TES      0.045200
     39 H152       -1.7470    6.3990    0.9020 hc        1 TES      0.045200
     40 H161       -4.2660    6.7850   -0.4590 hc        1 TES      0.048700
     41 H162       -2.6470    7.3340   -1.0530 hc        1 TES      0.048700
     42 H17        -2.4860    5.5820   -2.6090 h1        1 TES      0.034700
     43 HO7        -4.6810    6.2710   -2.8630 ho        1 TES      0.399000
     44 H181       -5.0970    3.3600   -1.4050 hc        1 TES      0.040700
     45 H182       -4.8160    4.3240    0.1020 hc        1 TES      0.040700
     46 H183       -4.2500    2.6030    0.0070 hc        1 TES      0.040700
     47 H191       -2.5790    1.0600    1.9920 hc        1 TES      0.041033
     48 H192       -2.4210   -0.2670    0.7720 hc        1 TES      0.041033
     49 H193       -1.5480   -0.3820    2.3570 hc        1 TES      0.041033
@<TRIPOS>BOND
     1    1    2 1   
     2    1   11 1   
     3    1   22 1   
     4    1   23 1   
     5    2    3 1   
     6    2   24 1   
     7    2   25 1   
     8    3    4 2   
     9    3    5 1   
    10    5    6 2   
    11    5   26 1   
    12    6    7 1   
    13    6   11 1   
    14    7    8 1   
    15    7   27 1   
    16    7   28 1   
    17    8    9 1   
    18    8   29 1   
    19    8   30 1   
    20    9   10 1   
    21    9   15 1   
    22    9   31 1   
    23   10   11 1   
    24   10   12 1   
    25   10   32 1   
    26   11   21 1   
    27   12   13 1   
    28   12   33 1   
    29   12   34 1   
    30   13   14 1   
    31   13   35 1   
    32   13   36 1   
    33   14   15 1   
    34   14   18 1   
    35   14   20 1   
    36   15   16 1   
    37   15   37 1   
    38   16   17 1   
    39   16   38 1   
    40   16   39 1   
    41   17   18 1   
    42   17   40 1   
    43   17   41 1   
    44   18   19 1   
    45   18   42 1   
    46   19   43 1   
    47   20   44 1   
    48   20   45 1   
    49   20   46 1   
    50   21   47 1   
    51   21   48 1   
    52   21   49 1   
@<TRIPOS>SUBSTRUCTURE
     1 TES         1 TEMP              0 ****  ****    0 ROOT
