@<TRIPOS>MOLECULE
TEU
   45    45     1     0     0
SMALL
bcc


@<TRIPOS>ATOM
      1 O1          0.0610    0.4600    0.0510 os        1 TEU     -0.443600
      2 C1'         1.4350    0.7860    0.2500 c3        1 TEU      0.025400
      3 C2'         1.7430    0.6290    1.7200 c         1 TEU      0.532100
      4 O2'         0.9390    0.8580    2.6210 o         1 TEU     -0.488100
      5 C3'         3.1690    0.1750    1.9930 c3        1 TEU      0.057100
      6 O3'         3.6070    0.5850    3.2650 oh        1 TEU     -0.568800
      7 C4'         3.2570   -1.3560    1.8030 c3        1 TEU      0.113100
      8 O4'         3.3120   -1.9200    3.1010 oh        1 TEU     -0.589800
      9 C5'         4.5140   -1.7210    0.9930 c3        1 TEU      0.115100
     10 O5'         4.2490   -1.2920   -0.3380 oh        1 TEU     -0.624800
     11 C6'         4.7750   -3.2300    1.0280 c3        1 TEU      0.080400
     12 O6'         5.8410   -3.4630    0.1200 oh        1 TEU     -0.612800
     13 C1         -0.2470    0.1000   -1.2860 c3        1 TEU      0.301900
     14 C2         -1.7820    0.0250   -1.3900 c3        1 TEU      0.099100
     15 O2         -2.3860    1.2140   -0.9300 oh        1 TEU     -0.592800
     16 C3         -2.3290   -1.1870   -0.6220 c3        1 TEU      0.073100
     17 O3         -3.6910   -1.4160   -0.9410 oh        1 TEU     -0.606800
     18 C4         -1.5640   -2.4590   -1.0240 c3        1 TEU      0.130100
     19 O4         -1.9700   -3.5640   -0.2360 oh        1 TEU     -0.596800
     20 C5         -0.0700   -2.2320   -0.7580 c3        1 TEU      0.099100
     21 O5          0.3990   -1.1270   -1.5400 os        1 TEU     -0.443600
     22 C6          0.7790   -3.4300   -1.1830 c3        1 TEU      0.141400
     23 O6          2.0820   -3.3380   -0.6460 oh        1 TEU     -0.621800
     24 H1          1.6010    1.8550   -0.0540 h1        1 TEU      0.074700
     25 H2          2.0950    0.1070   -0.3590 h1        1 TEU      0.074700
     26 H3          3.8690    0.6870    1.2700 h1        1 TEU      0.104700
     27 H4          3.0480    0.1470    3.9240 ho        1 TEU      0.430000
     28 H5          2.3540   -1.7360    1.2430 h1        1 TEU      0.065700
     29 H6          3.0870   -2.8540    3.0110 ho        1 TEU      0.414000
     30 H7          5.4120   -1.1730    1.3920 h1        1 TEU      0.070700
     31 H8          4.9730   -1.6280   -0.8850 ho        1 TEU      0.432000
     32 H9          5.0810   -3.5430    2.0610 h1        1 TEU      0.051200
     33 H10         3.8560   -3.7910    0.7100 h1        1 TEU      0.051200
     34 H11         5.8830   -4.4150   -0.0200 ho        1 TEU      0.414000
     35 H12         0.1890    0.8230   -2.0310 h2        1 TEU      0.092700
     36 H13        -2.0710   -0.0460   -2.4770 h1        1 TEU      0.100700
     37 H14        -2.0580    1.3820   -0.0340 ho        1 TEU      0.427000
     38 H15        -2.2260   -1.0120    0.4870 h1        1 TEU      0.069700
     39 H16        -4.1470   -0.5700   -0.8320 ho        1 TEU      0.425000
     40 H17        -1.7440   -2.6830   -2.1110 h1        1 TEU      0.059700
     41 H18        -2.9350   -3.5970   -0.2890 ho        1 TEU      0.428000
     42 H19         0.0950   -2.0080    0.3330 h1        1 TEU      0.076700
     43 H20         0.8180   -3.5010   -2.3020 h1        1 TEU      0.066700
     44 H21         0.3390   -4.3660   -0.7450 h1        1 TEU      0.066700
     45 H22         2.4840   -2.5250   -0.9890 ho        1 TEU      0.424000
@<TRIPOS>BOND
     1    1    2 1   
     2    1   13 1   
     3    2    3 1   
     4    2   24 1   
     5    2   25 1   
     6    3    4 2   
     7    3    5 1   
     8    5    6 1   
     9    5    7 1   
    10    5   26 1   
    11    6   27 1   
    12    7    8 1   
    13    7    9 1   
    14    7   28 1   
    15    8   29 1   
    16    9   10 1   
    17    9   11 1   
    18    9   30 1   
    19   10   31 1   
    20   11   12 1   
    21   11   32 1   
    22   11   33 1   
    23   12   34 1   
    24   13   14 1   
    25   13   21 1   
    26   13   35 1   
    27   14   15 1   
    28   14   16 1   
    29   14   36 1   
    30   15   37 1   
    31   16   17 1   
    32   16   18 1   
    33   16   38 1   
    34   17   39 1   
    35   18   19 1   
    36   18   20 1   
    37   18   40 1   
    38   19   41 1   
    39   20   21 1   
    40   20   22 1   
    41   20   42 1   
    42   22   23 1   
    43   22   43 1   
    44   22   44 1   
    45   23   45 1   
@<TRIPOS>SUBSTRUCTURE
     1 TEU         1 TEMP              0 ****  ****    0 ROOT
