@<TRIPOS>MOLECULE
molecule
   45    45     1     0     0
SMALL
bcc


@<TRIPOS>ATOM
      1 O1           0.0000     0.0000     0.0000 os         1 TEU      -0.404600
      2 C1'          1.4290     0.0000     0.0000 c3         1 TEU       0.033400
      3 C2'          1.9310     0.0000     1.4220 c          1 TEU       0.523100
      4 O2'          1.1460    -0.0010     2.3390 o          1 TEU      -0.453100
      5 C3'          3.4120     0.0000     1.6970 c3         1 TEU       0.058100
      6 O3'          3.6430     0.3490     3.0640 oh         1 TEU      -0.566800
      7 C4'          3.9830    -1.3930     1.4230 c3         1 TEU       0.164100
      8 O4'          3.2620    -2.3610     2.1870 oh         1 TEU      -0.579800
      9 C5'          5.4600    -1.4270     1.8220 c3         1 TEU       0.136100
     10 O5'          6.1810    -0.4580     1.0580 oh         1 TEU      -0.615800
     11 C6'          6.0300    -2.8190     1.5480 c3         1 TEU       0.111400
     12 O6'          7.3750    -2.8870     2.0260 oh         1 TEU      -0.612800
     13 C1          -0.5810    -0.0000    -1.3050 c3         1 TEU       0.317900
     14 C2          -2.0870     0.2490    -1.1950 c3         1 TEU       0.124100
     15 O2          -2.3180     1.4880    -0.5200 oh         1 TEU      -0.579800
     16 C3          -2.7280    -0.8930    -0.4010 c3         1 TEU       0.124100
     17 O3          -4.1440    -0.7050    -0.3520 oh         1 TEU      -0.608800
     18 C4          -2.4090    -2.2220    -1.0910 c3         1 TEU       0.110100
     19 O4          -2.9410    -3.3010    -0.3200 oh         1 TEU      -0.597800
     20 C5          -0.8900    -2.3770    -1.2060 c3         1 TEU       0.141100
     21 O5          -0.3530    -1.2660    -1.9280 os         1 TEU      -0.429600
     22 C6          -0.5640    -3.6740    -1.9480 c3         1 TEU       0.150400
     23 O6           0.8510    -3.8760    -1.9540 oh         1 TEU      -0.609800
     24 H1           1.7900     0.8850    -0.5110 h1         1 TEU       0.053200
     25 H2           1.7900    -0.8850    -0.5110 h1         1 TEU       0.053200
     26 H3           3.8990     0.7230     1.0530 h1         1 TEU       0.063700
     27 H4           3.6440     1.2880     3.1530 ho         1 TEU       0.406000
     28 H5           3.8880    -1.6210     0.3690 h1         1 TEU       0.050700
     29 H6           2.9960    -3.0710     1.6250 ho         1 TEU       0.406000
     30 H7           5.5550    -1.1990     2.8770 h1         1 TEU       0.079700
     31 H8           6.9390    -0.1760     1.5430 ho         1 TEU       0.421000
     32 H9           6.0150    -3.0120     0.4820 h1         1 TEU       0.031700
     33 H10          5.4280    -3.5630     2.0570 h1         1 TEU       0.031700
     34 H11          7.7070    -3.7610     1.9070 ho         1 TEU       0.407000
     35 H12         -0.1300     0.7810    -1.9060 h2         1 TEU       0.077700
     36 H13         -2.5200     0.2860    -2.1870 h1         1 TEU       0.059700
     37 H14         -2.6830     2.1120    -1.1250 ho         1 TEU       0.405000
     38 H15         -2.3250    -0.9030     0.6050 h1         1 TEU       0.086700
     39 H16         -4.4190    -0.6190     0.5450 ho         1 TEU       0.418000
     40 H17         -2.8480    -2.2280    -2.0810 h1         1 TEU       0.048700
     41 H18         -3.6950    -3.6590    -0.7580 ho         1 TEU       0.411000
     42 H19         -0.4560    -2.4040    -0.2140 h1         1 TEU       0.081700
     43 H20         -0.9230    -3.6080    -2.9680 h1         1 TEU       0.036200
     44 H21         -1.0450    -4.5070    -1.4490 h1         1 TEU       0.036200
     45 H22          1.0540    -4.6680    -2.4240 ho         1 TEU       0.404000
@<TRIPOS>BOND
     1    12    11 1
     2    11     9 1
     3    19    18 1
     4    17    16 1
     5     9    10 1
     6     9     7 1
     7     8     7 1
     8    18    16 1
     9    18    20 1
    10     7     5 1
    11    16    14 1
    12    23    22 1
    13    20    22 1
    14    20    21 1
    15     5     6 1
    16     5     3 1
    17    14    15 1
    18    14    13 1
    19    21    13 1
    20     2     3 1
    21     2     1 1
    22     3     4 2
    23    13     1 1
    24     2    24 1
    25     2    25 1
    26     5    26 1
    27     6    27 1
    28     7    28 1
    29     8    29 1
    30     9    30 1
    31    10    31 1
    32    11    32 1
    33    11    33 1
    34    12    34 1
    35    13    35 1
    36    14    36 1
    37    15    37 1
    38    16    38 1
    39    17    39 1
    40    18    40 1
    41    19    41 1
    42    20    42 1
    43    22    43 1
    44    22    44 1
    45    23    45 1
@<TRIPOS>SUBSTRUCTURE
     1 TEU         1 TEMP              0 ****  ****    0 ROOT
