@<TRIPOS>MOLECULE
TEY
   85    88     1     0     0
SMALL
bcc


@<TRIPOS>ATOM
      1 O20        -0.1170    0.9220    0.8490 oh        1 TEY     -0.598800
      2 C17         1.2650    0.5900    0.7070 c3        1 TEY      0.147800
      3 C19         1.9720    0.7570    2.0500 c3        1 TEY     -0.123100
      4 C18         1.4080   -0.8480    0.2230 c3        1 TEY     -0.123100
      5 C16         1.8410    1.5890   -0.3020 c3        1 TEY     -0.064400
      6 C15         1.2040    1.4780   -1.6700 c3        1 TEY     -0.079400
      7 C14         1.6790    2.5930   -2.5790 c3        1 TEY     -0.079400
      8 C12         1.0580    2.4980   -3.9710 c3        1 TEY     -0.054700
      9 C13        -0.3510    3.0590   -3.9310 c3        1 TEY     -0.092100
     10 C9          1.9290    3.2310   -4.9870 c3        1 TEY     -0.053700
     11 C8          3.3550    2.6450   -5.0530 c3        1 TEY     -0.078400
     12 C7          3.8140    2.6930   -6.5120 c3        1 TEY     -0.074400
     13 C5          1.4480    3.2120   -6.4570 c3        1 TEY     -0.039000
     14 C10         0.9340    1.8340   -6.8390 c3        1 TEY     -0.083100
     15 C2          0.4410    4.2870   -6.8340 c3        1 TEY     -0.068400
     16 C3          0.2240    4.3200   -8.3370 c3        1 TEY     -0.073400
     17 C4          1.5050    4.4040   -9.1500 c3        1 TEY     -0.046200
     18 C6          2.7670    3.5460   -7.2110 c3        1 TEY     -0.040500
     19 C1          2.5750    3.4710   -8.6840 c2        1 TEY     -0.065400
     20 C21         3.3400    2.7090   -9.4860 ce        1 TEY     -0.164000
     21 C22         3.2070    2.5910  -10.9180 ce        1 TEY     -0.100000
     22 C23         4.1610    2.1130  -11.7440 cf        1 TEY     -0.097200
     23 C24         3.9150    2.0140  -13.2110 c3        1 TEY     -0.076200
     24 C28         5.4920    1.6880  -11.3130 cf        1 TEY     -0.121200
     25 C29         6.2630    2.4070  -10.4900 c2        1 TEY     -0.178000
     26 C27         5.9650    0.3710  -11.8730 c3        1 TEY      0.181300
     27 O30         5.3090   -0.7220  -11.2510 oh        1 TEY     -0.586800
     28 C26         5.8010    0.3430  -13.4020 c3        1 TEY     -0.085700
     29 C25         4.3500    0.6630  -13.7780 c3        1 TEY      0.146100
     30 O32         4.2900    0.6930  -15.2000 oh        1 TEY     -0.596800
     31 C31         6.2130   -1.0050  -13.9750 c3        1 TEY     -0.102400
     32 C33         7.7310   -1.0750  -14.1200 c3        1 TEY      0.070300
     33 N34         8.2040   -2.3510  -14.6740 na        1 TEY      0.199900
     34 N35         8.3980   -3.4610  -13.9310 nc        1 TEY     -0.486800
     35 C36         8.7410   -4.3940  -14.8550 cd        1 TEY      0.462900
     36 N37         8.7300   -3.7990  -16.1500 nd        1 TEY     -0.376000
     37 N38         8.3980   -2.5850  -16.0020 nc        1 TEY     -0.150800
     38 H1         -0.4880    0.3000    1.4840 ho        1 TEY      0.397000
     39 H2          1.8440    1.8020    2.4200 hc        1 TEY      0.042367
     40 H3          1.5410    0.0570    2.8040 hc        1 TEY      0.042367
     41 H4          3.0600    0.5400    1.9380 hc        1 TEY      0.042367
     42 H5          0.7380   -1.0250   -0.6520 hc        1 TEY      0.042367
     43 H6          1.1250   -1.5600    1.0350 hc        1 TEY      0.042367
     44 H7          2.4630   -1.0470   -0.0790 hc        1 TEY      0.042367
     45 H8          1.6800    2.6240    0.1000 hc        1 TEY      0.047200
     46 H9          2.9450    1.4130   -0.3760 hc        1 TEY      0.047200
     47 H10         1.4620    0.4870   -2.1280 hc        1 TEY      0.048700
     48 H11         0.0880    1.5140   -1.5570 hc        1 TEY      0.048700
     49 H12         1.4200    3.5860   -2.1260 hc        1 TEY      0.040200
     50 H13         2.7970    2.5460   -2.6490 hc        1 TEY      0.040200
     51 H14         1.0040    1.4120   -4.2640 hc        1 TEY      0.050700
     52 H15        -0.8850    2.7040   -3.0160 hc        1 TEY      0.035033
     53 H16        -0.3310    4.1750   -3.9160 hc        1 TEY      0.035033
     54 H17        -0.9360    2.7240   -4.8220 hc        1 TEY      0.035033
     55 H18         1.9960    4.3070   -4.6650 hc        1 TEY      0.046700
     56 H19         3.3630    1.5890   -4.6830 hc        1 TEY      0.043200
     57 H20         4.0440    3.2400   -4.4060 hc        1 TEY      0.043200
     58 H21         3.8490    1.6620   -6.9440 hc        1 TEY      0.045200
     59 H22         4.8330    3.1390   -6.6060 hc        1 TEY      0.045200
     60 H23         0.8810    1.7290   -7.9500 hc        1 TEY      0.037700
     61 H24        -0.0860    1.6670   -6.4180 hc        1 TEY      0.037700
     62 H25         1.6180    1.0420   -6.4470 hc        1 TEY      0.037700
     63 H26        -0.5410    4.0980   -6.3280 hc        1 TEY      0.044200
     64 H27         0.8120    5.2850   -6.4830 hc        1 TEY      0.044200
     65 H28        -0.4180    5.2040   -8.5920 hc        1 TEY      0.041200
     66 H29        -0.3430    3.4010   -8.6430 hc        1 TEY      0.041200
     67 H30         1.9160    5.4500   -9.0790 hc        1 TEY      0.047700
     68 H31         1.2540    4.2250  -10.2280 hc        1 TEY      0.047700
     69 H32         3.0180    4.6270   -6.9840 hc        1 TEY      0.055700
     70 H33         4.1510    2.1010   -9.0390 ha        1 TEY      0.136000
     71 H34         2.2350    2.8930  -11.3500 ha        1 TEY      0.124000
     72 H35         2.8290    2.1730  -13.4450 hc        1 TEY      0.057700
     73 H36         4.4920    2.8250  -13.7340 hc        1 TEY      0.057700
     74 H37         5.9400    3.3730  -10.0810 ha        1 TEY      0.122000
     75 H38         7.2630    2.0720  -10.1820 ha        1 TEY      0.122000
     76 H39         7.0520    0.2010  -11.6190 h1        1 TEY      0.077700
     77 H40         4.3590   -0.5630  -11.3080 ho        1 TEY      0.404000
     78 H41         6.4530    1.1510  -13.8360 hc        1 TEY      0.071700
     79 H42         3.6730   -0.1530  -13.3960 h1        1 TEY      0.037700
     80 H43         3.3790    0.9060  -15.4350 ho        1 TEY      0.404000
     81 H44         5.7300   -1.1400  -14.9800 hc        1 TEY      0.078700
     82 H45         5.8480   -1.8240  -13.3000 hc        1 TEY      0.078700
     83 H46         8.2180   -0.9400  -13.1120 h1        1 TEY      0.076200
     84 H47         8.0860   -0.2560  -14.8080 h1        1 TEY      0.076200
     85 H48         8.9960   -5.4390  -14.6640 h5        1 TEY      0.084100
@<TRIPOS>BOND
     1    1    2 1   
     2    1   38 1   
     3    2    3 1   
     4    2    4 1   
     5    2    5 1   
     6    3   39 1   
     7    3   40 1   
     8    3   41 1   
     9    4   42 1   
    10    4   43 1   
    11    4   44 1   
    12    5    6 1   
    13    5   45 1   
    14    5   46 1   
    15    6    7 1   
    16    6   47 1   
    17    6   48 1   
    18    7    8 1   
    19    7   49 1   
    20    7   50 1   
    21    8    9 1   
    22    8   10 1   
    23    8   51 1   
    24    9   52 1   
    25    9   53 1   
    26    9   54 1   
    27   10   11 1   
    28   10   13 1   
    29   10   55 1   
    30   11   12 1   
    31   11   56 1   
    32   11   57 1   
    33   12   18 1   
    34   12   58 1   
    35   12   59 1   
    36   13   14 1   
    37   13   15 1   
    38   13   18 1   
    39   14   60 1   
    40   14   61 1   
    41   14   62 1   
    42   15   16 1   
    43   15   63 1   
    44   15   64 1   
    45   16   17 1   
    46   16   65 1   
    47   16   66 1   
    48   17   19 1   
    49   17   67 1   
    50   17   68 1   
    51   18   19 1   
    52   18   69 1   
    53   19   20 2   
    54   20   21 1   
    55   20   70 1   
    56   21   22 2   
    57   21   71 1   
    58   22   23 1   
    59   22   24 1   
    60   23   29 1   
    61   23   72 1   
    62   23   73 1   
    63   24   25 2   
    64   24   26 1   
    65   25   74 1   
    66   25   75 1   
    67   26   27 1   
    68   26   28 1   
    69   26   76 1   
    70   27   77 1   
    71   28   29 1   
    72   28   31 1   
    73   28   78 1   
    74   29   30 1   
    75   29   79 1   
    76   30   80 1   
    77   31   32 1   
    78   31   81 1   
    79   31   82 1   
    80   32   33 1   
    81   32   83 1   
    82   32   84 1   
    83   33   34 1   
    84   33   37 1   
    85   34   35 2   
    86   35   36 1   
    87   35   85 1   
    88   36   37 2   
@<TRIPOS>SUBSTRUCTURE
     1 TEY         1 TEMP              0 ****  ****    0 ROOT
