@<TRIPOS>MOLECULE
molecule
   85    88     1     0     0
SMALL
bcc


@<TRIPOS>ATOM
      1 O20          0.0000     0.0000     0.0000 oh         1 TEY      -0.603800
      2 C17          1.4290     0.0000     0.0000 c3         1 TEY       0.146800
      3 C19          1.9390     0.0000     1.4430 c3         1 TEY      -0.120100
      4 C18          1.9380    -1.2500    -0.7200 c3         1 TEY      -0.120100
      5 C16          1.9390     1.2480    -0.7220 c3         1 TEY      -0.065400
      6 C15          1.4300     1.2470    -2.1640 c3         1 TEY      -0.082400
      7 C14          1.9410     2.4950    -2.8860 c3         1 TEY      -0.082400
      8 C12          1.4310     2.4950    -4.3290 c3         1 TEY      -0.070700
      9 C13         -0.0940     2.6220    -4.3310 c3         1 TEY      -0.096100
     10 C9           2.0420     3.6770    -5.0860 c3         1 TEY      -0.054700
     11 C8           3.5870     3.5490    -5.1270 c3         1 TEY      -0.081400
     12 C7           3.9860     3.5590    -6.6300 c3         1 TEY      -0.078400
     13 C5           1.6040     3.6530    -6.5420 c3         1 TEY      -0.060000
     14 C10          1.4410     2.2020    -6.9980 c3         1 TEY      -0.091100
     15 C2           0.3670     4.4280    -6.9330 c3         1 TEY      -0.066400
     16 C3           0.0930     4.1450    -8.4190 c3         1 TEY      -0.078400
     17 C4           1.2690     4.5570    -9.3010 c3         1 TEY      -0.045200
     18 C6           2.8120     4.2890    -7.2870 c3         1 TEY      -0.036500
     19 C1           2.5770     4.0150    -8.7420 c2         1 TEY      -0.086400
     20 C21          3.4510     3.3450    -9.4930 ce         1 TEY      -0.168000
     21 C22          3.1680     3.1080   -10.9100 ce         1 TEY      -0.113000
     22 C23          4.0530     2.4290   -11.6700 cf         1 TEY      -0.086200
     23 C24          3.8000     2.1670   -13.1410 c3         1 TEY      -0.059200
     24 C28          5.3180     1.9100   -11.1090 cf         1 TEY      -0.110200
     25 C29          6.0680     2.6390   -10.2840 c2         1 TEY      -0.207000
     26 C27          5.7210     0.5070   -11.5180 c3         1 TEY       0.188300
     27 O30          4.8840    -0.4460   -10.8580 oh         1 TEY      -0.594800
     28 C26          5.5520     0.3780   -13.0340 c3         1 TEY      -0.053700
     29 C25          4.1060     0.6930   -13.4290 c3         1 TEY       0.157100
     30 O32          3.9250     0.4340   -14.8230 oh         1 TEY      -0.609800
     31 C31          5.8990    -1.0480   -13.4660 c3         1 TEY      -0.101400
     32 C33          7.3820    -1.3160   -13.1980 c3         1 TEY       0.071300
     33 N34          7.7140    -2.6820   -13.6110 na         1 TEY       0.304900
     34 N35          7.6420    -3.7280   -12.8610 nc         1 TEY      -0.580800
     35 C36          8.0160    -4.7620   -13.5740 cd         1 TEY       0.501900
     36 N37          8.3190    -4.3040   -14.7890 nd         1 TEY      -0.396000
     37 N38          8.1190    -3.0300   -14.7830 nc         1 TEY      -0.203800
     38 H1          -0.3140    -0.5640     0.6870 ho         1 TEY       0.401000
     39 H2           1.5970    -0.8960     1.9460 hc         1 TEY       0.041867
     40 H3           3.0220     0.0240     1.4430 hc         1 TEY       0.041867
     41 H4           1.5580     0.8720     1.9600 hc         1 TEY       0.041867
     42 H5           2.9540    -1.0850    -1.0560 hc         1 TEY       0.041867
     43 H6           1.9150    -2.0930    -0.0400 hc         1 TEY       0.041867
     44 H7           1.3050    -1.4580    -1.5740 hc         1 TEY       0.041867
     45 H8           3.0220     1.2480    -0.7210 hc         1 TEY       0.047200
     46 H9           1.5780     2.1330    -0.2120 hc         1 TEY       0.047200
     47 H10          1.7900     0.3620    -2.6740 hc         1 TEY       0.052200
     48 H11          0.3460     1.2480    -2.1640 hc         1 TEY       0.052200
     49 H12          3.0240     2.4940    -2.8860 hc         1 TEY       0.040700
     50 H13          1.5810     3.3810    -2.3760 hc         1 TEY       0.040700
     51 H14          1.7170     1.5690    -4.8130 hc         1 TEY       0.058700
     52 H15         -0.3700     3.6540    -4.5090 hc         1 TEY       0.037367
     53 H16         -0.4840     2.3050    -3.3720 hc         1 TEY       0.037367
     54 H17         -0.5070     1.9980    -5.1140 hc         1 TEY       0.037367
     55 H18          1.7560     4.6140    -4.6250 hc         1 TEY       0.054700
     56 H19          4.0420     4.3890    -4.6170 hc         1 TEY       0.044700
     57 H20          3.8940     2.6160    -4.6690 hc         1 TEY       0.044700
     58 H21          4.0680     2.5480    -7.0110 hc         1 TEY       0.046200
     59 H22          4.9080     4.1090    -6.7770 hc         1 TEY       0.046200
     60 H23          1.5660     2.1440    -8.0720 hc         1 TEY       0.040700
     61 H24          0.4530     1.8480    -6.7300 hc         1 TEY       0.040700
     62 H25          2.1890     1.5850    -6.5130 hc         1 TEY       0.040700
     63 H26         -0.4750     4.0990    -6.3360 hc         1 TEY       0.046700
     64 H27          0.5370     5.4880    -6.7870 hc         1 TEY       0.046700
     65 H28         -0.7870     4.6990    -8.7250 hc         1 TEY       0.044200
     66 H29         -0.0890     3.0850    -8.5470 hc         1 TEY       0.044200
     67 H30          1.3210     5.6380    -9.3430 hc         1 TEY       0.049200
     68 H31          1.1190     4.1630   -10.2990 hc         1 TEY       0.049200
     69 H32          2.8630     5.3540    -7.0950 hc         1 TEY       0.067700
     70 H33          4.3710     2.9760    -9.0550 ha         1 TEY       0.144000
     71 H34          2.2510     3.4800   -11.3490 ha         1 TEY       0.135000
     72 H35          2.7630     2.3760   -13.3750 hc         1 TEY       0.057700
     73 H36          4.4480     2.7970   -13.7390 hc         1 TEY       0.057700
     74 H37          6.9900     2.2330    -9.8880 ha         1 TEY       0.123000
     75 H38          5.7540     3.6390   -10.0090 ha         1 TEY       0.123000
     76 H39          6.7570     0.3350   -11.2520 h1         1 TEY       0.035700
     77 H40          5.2650    -0.6760   -10.0270 ho         1 TEY       0.407000
     78 H41          6.2170     1.0780   -13.5270 hc         1 TEY       0.070700
     79 H42          3.4340     0.0690   -12.8520 h1         1 TEY       0.058700
     80 H43          3.0180     0.2390   -14.9910 ho         1 TEY       0.407000
     81 H44          5.6970    -1.1650   -14.5240 hc         1 TEY       0.079700
     82 H45          5.2980    -1.7520   -12.9030 hc         1 TEY       0.079700
     83 H46          7.9840    -0.6120   -13.7610 h1         1 TEY       0.077700
     84 H47          7.5850    -1.1990   -12.1400 h1         1 TEY       0.077700
     85 H48          8.0700    -5.7910   -13.2400 h5         1 TEY       0.087100
@<TRIPOS>BOND
     1    16    17 1
     2    16    15 1
     3    17    19 1
     4    15    13 1
     5     4     2 1
     6    23    29 1
     7    23    22 1
     8    34    35 2
     9    34    33 1
    10    21    22 2
    11    21    20 1
    12    31    32 1
    13    31    28 1
    14    29    28 1
    15    29    30 1
    16    14    13 1
    17    22    24 1
    18    32    33 1
    19    19    20 2
    20    19    18 1
    21    13    18 1
    22    13    10 1
    23    35    36 1
    24    33    37 1
    25     2     3 1
    26     2     5 1
    27     2     1 1
    28     6     5 1
    29     6     7 1
    30    28    26 1
    31    18    12 1
    32     8    10 1
    33     8     7 1
    34     8     9 1
    35    24    25 2
    36    24    26 1
    37    10    11 1
    38    36    37 2
    39    26    27 1
    40    12    11 1
    41     1    38 1
    42     3    39 1
    43     3    40 1
    44     3    41 1
    45     4    42 1
    46     4    43 1
    47     4    44 1
    48     5    45 1
    49     5    46 1
    50     6    47 1
    51     6    48 1
    52     7    49 1
    53     7    50 1
    54     8    51 1
    55     9    52 1
    56     9    53 1
    57     9    54 1
    58    10    55 1
    59    11    56 1
    60    11    57 1
    61    12    58 1
    62    12    59 1
    63    14    60 1
    64    14    61 1
    65    14    62 1
    66    15    63 1
    67    15    64 1
    68    16    65 1
    69    16    66 1
    70    17    67 1
    71    17    68 1
    72    18    69 1
    73    20    70 1
    74    21    71 1
    75    23    72 1
    76    23    73 1
    77    25    74 1
    78    25    75 1
    79    26    76 1
    80    27    77 1
    81    28    78 1
    82    29    79 1
    83    30    80 1
    84    31    81 1
    85    31    82 1
    86    32    83 1
    87    32    84 1
    88    35    85 1
@<TRIPOS>SUBSTRUCTURE
     1 TEY         1 TEMP              0 ****  ****    0 ROOT
