@<TRIPOS>MOLECULE
TF1
   47    48     1     0     0
SMALL
bcc


@<TRIPOS>ATOM
      1 N1           0.0000     0.0000     0.0000 n          1 TF1      -0.062800
      2 C1          -0.6860     0.9530    -0.6600 c          1 TF1       0.596100
      3 C2           1.4700     0.0000     0.0000 c3         1 TF1       0.049700
      4 C3          -0.7070    -1.0590     0.7340 c3         1 TF1      -0.221000
      5 C4          -2.1850     1.0300    -0.5270 c3         1 TF1       0.022800
      6 O1          -0.0980     1.7480    -1.3610 o          1 TF1      -0.594100
      7 C5           1.9600     0.0000     1.4530 c3         1 TF1      -0.405000
      8 C6           1.9820     1.2510    -0.7180 c3         1 TF1      -0.031100
      9 C7          -0.2170    -1.0600     2.1880 c3         1 TF1       0.315700
     10 C8          -2.6730     2.3910    -1.0320 c3         1 TF1       0.572900
     11 C9          -2.8300    -0.0820    -1.3580 c3         1 TF1      -0.051100
     12 O2          -2.5510     0.8730     0.8450 oh         1 TF1      -0.575800
     13 N2           1.2530    -1.0570     2.1900 n          1 TF1       0.250200
     14 C10         -0.7290    -2.3130     2.9020 c3         1 TF1      -0.052100
     15 F1          -2.3150     2.5450    -2.3750 f          1 TF1      -0.198300
     16 F2          -4.0650     2.4620    -0.9080 f          1 TF1      -0.198300
     17 F3          -2.0850     3.4070    -0.2720 f          1 TF1      -0.198300
     18 C11          1.9400    -2.0090     2.8520 c          1 TF1       0.459700
     19 C12          3.4100    -1.9070     2.9820 ca         1 TF1      -0.063600
     20 O3           1.3510    -2.9530     3.3430 o          1 TF1      -0.600100
     21 C13          4.1890    -3.0630     3.0320 ca         1 TF1      -0.150000
     22 C14          4.0180    -0.6520     3.0470 ca         1 TF1      -0.150000
     23 C15          5.5580    -2.9680     3.1520 ca         1 TF1      -0.081000
     24 C16          5.3870    -0.5550     3.1740 ca         1 TF1      -0.081000
     25 C17          6.1660    -1.7130     3.2240 ca         1 TF1       0.011000
     26 C18          7.5890    -1.6130     3.3500 cg         1 TF1       0.210800
     27 N3           8.7170    -1.5140     3.4420 n1         1 TF1      -0.350800
     28 H2           1.8320    -0.8880    -0.5040 h1         1 TF1       0.013700
     29 H3C1        -1.7710    -0.9500     0.5640 h1         1 TF1      -0.007800
     30 H3C2        -0.5030    -0.9450     1.7920 h1         1 TF1      -0.007800
     31 H5C1         3.0410     0.0790     1.4560 h1         1 TF1       0.100700
     32 H5C2         1.6720    -0.9350     1.9180 h1         1 TF1       0.100700
     33 H6C1         1.7340     2.1300    -0.1340 hc         1 TF1       0.037700
     34 H6C2         1.5180     1.3230    -1.6940 hc         1 TF1       0.037700
     35 H6C3         3.0570     1.1870    -0.8330 hc         1 TF1       0.037700
     36 H7          -0.5820    -0.1740     2.6930 h1         1 TF1      -0.018300
     37 H9C1        -2.5760    -1.0450    -0.9300 hc         1 TF1       0.038700
     38 H9C2        -2.4630    -0.0310    -2.3760 hc         1 TF1       0.038700
     39 H9C3        -3.9060     0.0420    -1.3540 hc         1 TF1       0.038700
     40 HA          -3.4860     0.7680     0.9110 ho         1 TF1       0.417000
     41 H101        -1.7910    -2.2120     3.0900 hc         1 TF1       0.043700
     42 H102        -0.2050    -2.4320     3.8420 hc         1 TF1       0.043700
     43 H103        -0.5540    -3.1810     2.2780 hc         1 TF1       0.043700
     44 H13          4.2830    -3.6130     3.9610 ha         1 TF1       0.180000
     45 H14          4.1920    -0.1830     4.0080 ha         1 TF1       0.180000
     46 H15          6.1620    -3.8660     3.1920 ha         1 TF1       0.127500
     47 H16          5.8580     0.4190     3.2240 ha         1 TF1       0.127500
@<TRIPOS>BOND
     1     1     2 1   
     2     1     3 1   
     3     1     4 1   
     4     2     5 1   
     5     2     6 2   
     6     3     7 1   
     7     3     8 1   
     8     3    28 1   
     9     4     9 1   
    10     4    29 1   
    11     4    30 1   
    12     5    10 1   
    13     5    11 1   
    14     5    12 1   
    15     7    13 1   
    16     7    31 1   
    17     7    32 1   
    18     8    33 1   
    19     8    34 1   
    20     8    35 1   
    21     9    13 1   
    22     9    14 1   
    23     9    36 1   
    24    10    15 1   
    25    10    16 1   
    26    10    17 1   
    27    11    37 1   
    28    11    38 1   
    29    11    39 1   
    30    12    40 1   
    31    13    18 1   
    32    14    41 1   
    33    14    42 1   
    34    14    43 1   
    35    18    19 1   
    36    18    20 2   
    37    19    21 ar  
    38    19    22 ar  
    39    21    23 ar  
    40    21    44 1   
    41    22    24 ar  
    42    22    45 1   
    43    23    25 ar  
    44    23    46 1   
    45    24    25 ar  
    46    24    47 1   
    47    25    26 1   
    48    26    27 3   
@<TRIPOS>SUBSTRUCTURE
     1 TF1         1 TEMP              0 ****  ****    0 ROOT
