@<TRIPOS>MOLECULE
TF2
   50    51     1     0     0
SMALL
bcc


@<TRIPOS>ATOM
      1 C1           0.0000     0.0000     0.0000 ca         1 TF2      -0.178500
      2 S1          -0.8790     0.0060    -1.5270 sy         1 TF2       1.050200
      3 C2           1.3820     0.0000     0.0000 ca         1 TF2       0.024000
      4 C3          -0.6940    -0.0140     1.1960 ca         1 TF2       0.031000
      5 N1          -1.0190     1.5830    -2.0120 nh         1 TF2      -0.368900
      6 O1          -2.1980    -0.4200    -1.2150 o          1 TF2      -0.585300
      7 O2          -0.0160    -0.6130    -2.4720 o          1 TF2      -0.585300
      8 C4           2.0730     0.0000     1.1950 ca         1 TF2      -0.163300
      9 C5          -0.0080    -0.0180     2.3930 ca         1 TF2      -0.153000
     10 C6          -2.1760     2.3050    -1.7120 ca         1 TF2       0.065600
     11 C7           0.0710     2.2210    -2.7540 c3         1 TF2       0.232800
     12 C8           1.3800    -0.0120     2.3970 ca         1 TF2      -0.035400
     13 C9           3.5810     0.0070     1.1940 c3         1 TF2       0.067200
     14 C10         -2.0980     3.4540    -0.9340 ca         1 TF2      -0.103000
     15 C11         -3.4060     1.8800    -2.1950 ca         1 TF2      -0.103000
     16 C12         -0.1940     2.0960    -4.2550 c3         1 TF2      -0.017100
     17 N2           2.0780    -0.0180     3.6100 ns         1 TF2      -0.036100
     18 C13         -3.2440     4.1660    -0.6400 ca         1 TF2      -0.091000
     19 C14         -4.5490     2.5950    -1.8930 ca         1 TF2      -0.091000
     20 C15          1.4810     0.4260     4.7330 c          1 TF2       0.552100
     21 C16         -4.4680     3.7370    -1.1180 ca         1 TF2      -0.106000
     22 C17          2.1780     0.2880     6.0620 c3         1 TF2       0.037800
     23 O3           0.3820     0.9370     4.6740 o          1 TF2      -0.567100
     24 C18          2.4450    -1.1910     6.3450 c3         1 TF2       0.556900
     25 C19          3.5050     1.0480     6.0240 c3         1 TF2      -0.038100
     26 O4           1.3480     0.8270     7.0930 oh         1 TF2      -0.523800
     27 F1           3.0930    -1.3200     7.5800 f          1 TF2      -0.199967
     28 F2           1.2330    -1.8870     6.3800 f          1 TF2      -0.199967
     29 F3           3.2570    -1.7200     5.3370 f          1 TF2      -0.199967
     30 H2           1.9230     0.0090    -0.9380 ha         1 TF2       0.123000
     31 H3          -1.7770    -0.0180     1.1930 ha         1 TF2       0.131000
     32 H5          -0.5520    -0.0280     3.3300 ha         1 TF2       0.163000
     33 H7C1         1.0070     1.7330    -2.5110 h1         1 TF2       0.016200
     34 H7C2         0.1280     3.2680    -2.4830 h1         1 TF2       0.016200
     35 H9C1         3.9470    -0.9190     1.6210 hc         1 TF2       0.008367
     36 H9C2         3.9410     0.1030     0.1770 hc         1 TF2       0.008367
     37 H9C3         3.9390     0.8430     1.7830 hc         1 TF2       0.008367
     38 H10         -1.1390     3.7900    -0.5590 ha         1 TF2       0.114500
     39 H11         -3.4710     0.9860    -2.8020 ha         1 TF2       0.114500
     40 H121         0.7500     2.0620    -4.7870 hc         1 TF2       0.010700
     41 H122        -0.7500     1.1870    -4.4500 hc         1 TF2       0.010700
     42 H123        -0.7680     2.9500    -4.5930 hc         1 TF2       0.010700
     43 HA           3.0470    -0.2650     3.6250 hn         1 TF2       0.186500
     44 H13         -3.1830     5.0610    -0.0330 ha         1 TF2       0.102500
     45 H14         -5.5100     2.2620    -2.2680 ha         1 TF2       0.102500
     46 H16         -5.3650     4.2970    -0.8840 ha         1 TF2       0.101000
     47 H191         4.2150     0.5040     5.4120 hc         1 TF2       0.030700
     48 H192         3.8950     1.1440     7.0300 hc         1 TF2       0.030700
     49 H193         3.3450     2.0330     5.6030 hc         1 TF2       0.030700
     50 H4           1.8820     1.2930     7.7150 ho         1 TF2       0.406000
@<TRIPOS>BOND
     1     1     2 1   
     2     1     3 ar  
     3     1     4 ar  
     4     2     5 1   
     5     2     6 2   
     6     2     7 2   
     7     3     8 ar  
     8     3    30 1   
     9     4     9 ar  
    10     4    31 1   
    11     5    10 1   
    12     5    11 1   
    13     8    12 ar  
    14     8    13 1   
    15     9    12 ar  
    16     9    32 1   
    17    10    14 ar  
    18    10    15 ar  
    19    11    16 1   
    20    11    33 1   
    21    11    34 1   
    22    12    17 1   
    23    13    35 1   
    24    13    36 1   
    25    13    37 1   
    26    14    18 ar  
    27    14    38 1   
    28    15    19 ar  
    29    15    39 1   
    30    16    40 1   
    31    16    41 1   
    32    16    42 1   
    33    17    20 1   
    34    17    43 1   
    35    18    21 ar  
    36    18    44 1   
    37    19    21 ar  
    38    19    45 1   
    39    20    22 1   
    40    20    23 2   
    41    21    46 1   
    42    22    24 1   
    43    22    25 1   
    44    22    26 1   
    45    24    27 1   
    46    24    28 1   
    47    24    29 1   
    48    25    47 1   
    49    25    48 1   
    50    25    49 1   
    51    26    50 1   
@<TRIPOS>SUBSTRUCTURE
     1 TF2         1 TEMP              0 ****  ****    0 ROOT
