@<TRIPOS>MOLECULE
TF3
   51    52     1     0     0
SMALL
bcc


@<TRIPOS>ATOM
      1 C1           0.0000     0.0000     0.0000 ca         1 TF3       0.157100
      2 C2           1.3870     0.0000     0.0000 ca         1 TF3      -0.079600
      3 C3          -0.6910    -0.0100     1.2030 ca         1 TF3      -0.212000
      4 O1          -0.6820     0.0040    -1.1750 os         1 TF3      -0.258900
      5 C4           2.0780     0.0000     1.1980 ca         1 TF3      -0.044000
      6 Cl1          2.2560     0.0110    -1.5030 cl         1 TF3       0.011600
      7 C5           0.0040    -0.0150     2.3970 ca         1 TF3      -0.036000
      8 C6          -2.0730    -0.0030    -0.8470 c3         1 TF3       0.238700
      9 C7           1.3860    -0.0090     2.3950 ca         1 TF3      -0.133300
     10 C8          -2.8870     0.0020    -2.1150 ca         1 TF3      -0.132300
     11 C9           2.1410    -0.0140     3.7000 c3         1 TF3      -0.012100
     12 C10         -3.2570    -1.1940    -2.7030 ca         1 TF3      -0.073000
     13 C11         -3.2650     1.2000    -2.6890 ca         1 TF3      -0.073000
     14 C12          2.3980    -1.4370     4.1260 c          1 TF3       0.578100
     15 C13         -4.0040    -1.1890    -3.8660 ca         1 TF3      -0.100000
     16 C14         -4.0100     1.2050    -3.8540 ca         1 TF3      -0.100000
     17 N1           3.0620    -1.6870     5.2710 ns         1 TF3      -0.230900
     18 O2           2.0070    -2.3560     3.4380 o          1 TF3      -0.599100
     19 C15         -4.3840     0.0100    -4.4390 ca         1 TF3      -0.066300
     20 C16          3.3120    -3.0700     5.6860 c3         1 TF3       0.058000
     21 C17         -5.2000     0.0140    -5.7060 c3         1 TF3      -0.000400
     22 C18          4.0780    -3.0750     7.0100 c3         1 TF3      -0.067200
     23 C19         -6.5290     0.7280    -5.4540 c3         1 TF3       0.005900
     24 C20         -4.4290     0.7460    -6.8070 c3         1 TF3       0.005900
     25 N2           4.3290    -4.4620     7.4260 nz         1 TF3       0.097400
     26 H3          -1.7740    -0.0120     1.2070 ha         1 TF3       0.142000
     27 H4           3.1610     0.0020     1.1990 ha         1 TF3       0.110000
     28 H5          -0.5350    -0.0220     3.3370 ha         1 TF3       0.099000
     29 H6C1        -2.3100     0.8770    -0.2620 h1         1 TF3       0.013200
     30 H6C2        -2.3040    -0.8920    -0.2730 h1         1 TF3       0.013200
     31 H9C1         1.5540     0.4900     4.4580 hc         1 TF3       0.035200
     32 H9C2         3.0850     0.5010     3.5720 hc         1 TF3       0.035200
     33 H10         -2.9590    -2.1340    -2.2540 ha         1 TF3       0.104500
     34 H11         -2.9720     2.1370    -2.2300 ha         1 TF3       0.104500
     35 H13         -4.2960    -2.1250    -4.3270 ha         1 TF3       0.111500
     36 H14         -4.3070     2.1450    -4.3040 ha         1 TF3       0.111500
     37 H1           3.3840    -0.9290     5.8390 hn         1 TF3       0.186500
     38 H161         2.3680    -3.5860     5.8130 h1         1 TF3       0.039200
     39 H162         3.8990    -3.5740     4.9270 h1         1 TF3       0.039200
     40 H17         -5.3910    -1.0060    -6.0160 hc         1 TF3       0.029700
     41 H181         5.0230    -2.5600     6.8830 hx         1 TF3       0.086700
     42 H182         3.4910    -2.5710     7.7690 hx         1 TF3       0.086700
     43 H191        -6.3530     1.7900    -5.3380 hc         1 TF3       0.006367
     44 H192        -6.9840     0.3360    -4.5530 hc         1 TF3       0.006367
     45 H193        -7.1930     0.5620    -6.2950 hc         1 TF3       0.006367
     46 H201        -4.4100     1.8070    -6.5900 hc         1 TF3       0.006367
     47 H202        -4.9160     0.5800    -7.7600 hc         1 TF3       0.006367
     48 H203        -3.4150     0.3680    -6.8500 hc         1 TF3       0.006367
     49 H2N1         4.8300    -4.4650     8.2920 hn         1 TF3       0.225800
     50 H2N2         3.4560    -4.9380     7.5430 hn         1 TF3       0.225800
     51 H23          4.8710    -4.9270     6.7250 hn         1 TF3       0.225800
@<TRIPOS>BOND
     1     1     2 ar  
     2     1     3 ar  
     3     1     4 1   
     4     2     5 ar  
     5     2     6 1   
     6     3     7 ar  
     7     3    26 1   
     8     4     8 1   
     9     5     9 ar  
    10     5    27 1   
    11     7     9 ar  
    12     7    28 1   
    13     8    10 1   
    14     8    29 1   
    15     8    30 1   
    16     9    11 1   
    17    10    12 ar  
    18    10    13 ar  
    19    11    14 1   
    20    11    31 1   
    21    11    32 1   
    22    12    15 ar  
    23    12    33 1   
    24    13    16 ar  
    25    13    34 1   
    26    14    17 1   
    27    14    18 2   
    28    15    19 ar  
    29    15    35 1   
    30    16    19 ar  
    31    16    36 1   
    32    17    20 1   
    33    17    37 1   
    34    19    21 1   
    35    20    22 1   
    36    20    38 1   
    37    20    39 1   
    38    21    23 1   
    39    21    24 1   
    40    21    40 1   
    41    22    25 1   
    42    22    41 1   
    43    22    42 1   
    44    23    43 1   
    45    23    44 1   
    46    23    45 1   
    47    24    46 1   
    48    24    47 1   
    49    24    48 1   
    50    25    49 1   
    51    25    50 1   
    52    25    51 1   
@<TRIPOS>SUBSTRUCTURE
     1 TF3         1 TEMP              0 ****  ****    0 ROOT
