@<TRIPOS>MOLECULE
molecule
    7     6     1     0     0
SMALL
bcc


@<TRIPOS>ATOM
      1 C1           0.0000     0.0000     0.0000 c3         1 TF4       0.110100
      2 C            1.5070     0.0000     0.0000 c          1 TF4       0.882600
      3 O            2.1110     0.0000     1.0460 o          1 TF4      -0.805300
      4 Cl1         -0.6010    -1.3920    -0.9750 cl         1 TF4      -0.228400
      5 Cl2         -0.6020    -0.1490     1.6930 cl         1 TF4      -0.228400
      6 O2           2.1780     0.0000    -1.1620 o          1 TF4      -0.805300
      7 H1          -0.3610     0.9260    -0.4310 h2         1 TF4       0.074700
@<TRIPOS>BOND
     1     1     2 1
     2     1     4 1
     3     1     5 1
     4     1     7 1
     5     2     3 1
     6     2     6 1
@<TRIPOS>SUBSTRUCTURE
     1 TF4         1 TEMP              0 ****  ****    0 ROOT
