@<TRIPOS>MOLECULE
TF4
    7     6     1     0     0
SMALL
bcc


@<TRIPOS>ATOM
      1 C1          0.0200   -0.0690   -0.0030 c3        1 TF4      0.072100
      2 C           1.5800   -0.0140   -0.0430 c         1 TF4      0.929600
      3 O           2.2470   -0.7330    0.7350 o         1 TF4     -0.797800
      4 Cl1        -0.6060   -1.6680   -0.4180 cl        1 TF4     -0.236400
      5 Cl2        -0.6290    0.4500    1.5570 cl        1 TF4     -0.236400
      6 O2          2.0360    0.7900   -0.9000 o         1 TF4     -0.797800
      7 H1         -0.4140    0.6290   -0.7560 h2        1 TF4      0.067700
@<TRIPOS>BOND
     1    1    2 1   
     2    1    4 1   
     3    1    5 1   
     4    1    7 1   
     5    2    3 1   
     6    2    6 1   
@<TRIPOS>SUBSTRUCTURE
     1 TF4         1 TEMP              0 ****  ****    0 ROOT
