@<TRIPOS>MOLECULE
molecule
   30    31     1     0     0
SMALL
bcc


@<TRIPOS>ATOM
      1 C10          0.0000     0.0000     0.0000 ca         1 TF5      -0.168000
      2 C17          0.8650    -4.1480     3.5780 c3         1 TF5       0.137400
      3 C16          0.0490    -3.2740     4.5100 c3         1 TF5       0.147400
      4 C8           2.0930     0.0000     1.2080 ca         1 TF5       0.053900
      5 C7           1.3950    -0.0000     2.4160 ca         1 TF5       0.153900
      6 C5          -2.1320     0.0430     6.0770 ca         1 TF5      -0.103000
      7 C4          -1.7900    -1.1750     5.4900 ca         1 TF5      -0.177000
      8 C3          -1.0880    -1.1970     4.2850 ca         1 TF5       0.143100
      9 C2          -0.7270     0.0000     3.6670 cp         1 TF5      -0.061000
     10 C           -1.7710     1.2400     5.4590 ca         1 TF5      -0.146000
     11 F13          3.4320    -0.0010     1.2080 f          1 TF5      -0.116900
     12 F            2.0810     0.0010     3.5690 f          1 TF5      -0.114900
     13 C9           1.3950     0.0000     0.0000 ca         1 TF5       0.121900
     14 F14          2.0650    -0.0010    -1.1600 f          1 TF5      -0.122900
     15 C11         -0.6970    -0.0000     1.2090 ca         1 TF5      -0.071000
     16 C6           0.0020     0.0000     2.4140 cp         1 TF5      -0.056000
     17 C1          -1.0690     1.2190     4.2540 ca         1 TF5      -0.092000
     18 O20          1.6660    -3.3180     2.7460 oh         1 TF5      -0.597800
     19 H10         -0.5420    -0.0000    -0.9380 ha         1 TF5       0.154000
     20 H171         1.5030    -4.8020     4.1600 h1         1 TF5       0.031200
     21 H172         0.2000    -4.7430     2.9640 h1         1 TF5       0.031200
     22 H161        -0.5770    -3.8970     5.1370 h1         1 TF5       0.043200
     23 H162         0.7140    -2.6870     5.1330 h1         1 TF5       0.043200
     24 H5          -2.6770     0.0600     7.0130 ha         1 TF5       0.134000
     25 H4          -2.0710    -2.1050     5.9710 ha         1 TF5       0.138000
     26 H           -2.0360     2.1860     5.9150 ha         1 TF5       0.135000
     27 H11         -1.7810    -0.0000     1.2100 ha         1 TF5       0.152000
     28 H1          -0.7880     2.1490     3.7740 ha         1 TF5       0.140000
     29 HO20         2.3150    -3.8450     2.3080 ho         1 TF5       0.403000
     30 O           -0.7690    -2.4030     3.7330 os         1 TF5      -0.335900
@<TRIPOS>BOND
     1     1    15 ar
     2     1    13 ar
     3     1    19 1
     4     2     3 1
     5     2    18 1
     6     2    20 1
     7     2    21 1
     8     3    30 1
     9     3    22 1
    10     3    23 1
    11     4    13 ar
    12     4     5 ar
    13     4    11 1
    14     5    16 ar
    15     5    12 1
    16     6     7 ar
    17     6    10 ar
    18     6    24 1
    19     7     8 ar
    20     7    25 1
    21     8    30 1
    22     8     9 ar
    23     9    17 ar
    24     9    16 1
    25    10    17 ar
    26    10    26 1
    27    13    14 1
    28    15    16 ar
    29    15    27 1
    30    17    28 1
    31    18    29 1
@<TRIPOS>SUBSTRUCTURE
     1 TF5         1 TEMP              0 ****  ****    0 ROOT
