@<TRIPOS>MOLECULE
TF5
   30    29     1     0     0
SMALL
bcc


@<TRIPOS>ATOM
      1 C10        -0.6520    1.1870   -0.1300 c1        1 TF5     -0.071000
      2 C17         0.7090   -4.1170    5.8290 c2        1 TF5     -0.253000
      3 C16        -0.1950   -3.2450    5.3750 c2        1 TF5     -0.056000
      4 C8          1.4400   -0.0860    0.0890 c2        1 TF5      0.126000
      5 C7          1.1100   -0.4050    1.4830 c2        1 TF5      0.047000
      6 C5         -1.2350    0.4990    6.8240 c1        1 TF5     -0.150000
      7 C4         -1.8380   -2.2930    3.2790 c2        1 TF5     -0.269000
      8 C3         -0.7560   -1.6480    3.7330 c2        1 TF5      0.062000
      9 C2         -0.4400   -0.2420    3.4280 c2        1 TF5     -0.051000
     10 C          -0.9130    0.5980    5.6740 c1        1 TF5     -0.158000
     11 F13         2.5950   -0.5620   -0.3990 f         1 TF5     -0.054000
     12 F           2.0150   -1.1490    2.1600 f         1 TF5     -0.075000
     13 C9          0.5670    0.6900   -0.6730 c2        1 TF5     -0.023000
     14 F14         0.8820    0.9800   -1.9570 f         1 TF5     -0.072000
     15 C11        -0.9940    0.8680    1.2400 c3        1 TF5     -0.188000
     16 C6         -0.0530    0.0460    2.0440 c2        1 TF5     -0.070000
     17 C1         -0.5290    0.7530    4.3360 c2        1 TF5      0.014000
     18 O20         2.8980   -2.7590    4.0310 oh        1 TF5     -0.398000
     19 H10        -2.0030    0.3480    1.2050 hc        1 TF5      0.179500
     20 H171        2.1970   -3.0570    3.4430 ho        1 TF5      0.198500
     21 H172        0.4320   -4.8770    6.5690 ha        1 TF5      0.143000
     22 H161        1.7600   -4.1050    5.5060 ha        1 TF5      0.143000
     23 H162       -1.2550   -3.2020    5.6600 h4        1 TF5      0.140000
     24 H5         -2.0410   -3.3450    3.5150 ha        1 TF5      0.134000
     25 H4         -1.5180    0.4140    7.8430 ha        1 TF5      0.231000
     26 H          -2.5790   -1.7910    2.6470 ha        1 TF5      0.134000
     27 H11        -1.1850    1.8510    1.7720 hc        1 TF5      0.179500
     28 H1         -0.2870    1.7940    4.0390 ha        1 TF5      0.147000
     29 HO20        2.5450   -1.9390    4.3910 ho        1 TF5      0.198500
     30 O           0.2440   -2.2490    4.4970 os        1 TF5     -0.187000
@<TRIPOS>BOND
     1    1   13 1   
     2    1   15 1   
     3    2    3 1   
     4    2   21 1   
     5    2   22 1   
     6    3   23 1   
     7    3   30 1   
     8    4    5 1   
     9    4   11 1   
    10    4   13 1   
    11    5   12 1   
    12    5   16 1   
    13    6   10 1   
    14    6   25 1   
    15    7    8 1   
    16    7   24 1   
    17    7   26 1   
    18    8    9 1   
    19    8   30 1   
    20    9   16 1   
    21    9   17 1   
    22   10   17 1   
    23   13   14 1   
    24   15   16 1   
    25   15   19 1   
    26   15   27 1   
    27   17   28 1   
    28   18   20 1   
    29   18   29 1   
@<TRIPOS>SUBSTRUCTURE
     1 TF5         1 TEMP              0 ****  ****    0 ROOT
