@<TRIPOS>MOLECULE
TF6
   45    47     1     0     0
SMALL
bcc


@<TRIPOS>ATOM
      1 N3           0.0000     0.0000     0.0000 n          1 TF6      -0.232800
      2 C4           1.4690     0.0000     0.0000 c3         1 TF6       0.067000
      3 C5           1.9610     0.0000     1.4510 c3         1 TF6      -0.051900
      4 C6           1.3320     1.1780     2.1990 c3         1 TF6      -0.045700
      5 C7           1.8480     1.2020     3.6390 c3         1 TF6       0.022900
      6 C8          -0.6870    -0.9330    -0.6890 c          1 TF6       0.988600
      7 C13          0.1220     2.3790     5.0170 ca         1 TF6      -0.095000
      8 C15          0.3610     4.6810     5.6290 ca         1 TF6      -0.121000
      9 C17          2.0520     3.6050     4.3050 ca         1 TF6      -0.110000
     10 C20          3.1820     7.6760     3.6350 ca         1 TF6      -0.267300
     11 C21          3.2570     8.3440     2.4250 ca         1 TF6       0.021000
     12 C24          2.5100     7.8660     1.3570 ca         1 TF6      -0.390600
     13 O9          -0.0900    -1.7870    -1.3160 o          1 TF6      -0.918800
     14 C2          -0.7070     1.0340     0.7680 c3         1 TF6       0.067000
     15 C1          -0.1910     1.0260     2.2050 c3         1 TF6      -0.051900
     16 C12          1.3270     2.4300     4.3400 ca         1 TF6      -0.050300
     17 C14         -0.3590     3.5040     5.6610 ca         1 TF6      -0.090000
     18 C16          1.5710     4.7350     4.9510 ca         1 TF6       0.096100
     19 O18          2.2830     5.8920     4.9180 os         1 TF6      -0.338400
     20 C19          2.3660     6.5560     3.7380 ca         1 TF6       0.652600
     21 N24          1.6680     6.1320     2.6970 nb         1 TF6      -0.636000
     22 C23          1.7190     6.7480     1.5320 ca         1 TF6       0.516200
     23 F28          3.5840     8.0090    -0.7540 f          1 TF6      -0.209300
     24 F26          1.3360     8.3980    -0.6360 f          1 TF6      -0.209300
     25 F27          2.8070     9.9260     0.2140 f          1 TF6      -0.209300
     26 H4           1.8320     0.8870    -0.5050 h1         1 TF6       0.018450
     27 H4A          1.8320    -0.8870    -0.5050 h1         1 TF6       0.018450
     28 H5           1.6700    -0.9270     1.9300 hc         1 TF6       0.010700
     29 H5A          3.0400     0.0980     1.4660 hc         1 TF6       0.010700
     30 H6           1.5990     2.1030     1.7010 hc         1 TF6       0.026700
     31 H7           1.5050     0.3160     4.1600 hc         1 TF6       0.016200
     32 H7A          2.9310     1.2210     3.6340 hc         1 TF6       0.016200
     33 O3          -2.0330    -0.9210    -0.6800 o          1 TF6      -0.918800
     34 H13         -0.4450     1.4560     5.0440 ha         1 TF6       0.119000
     35 H15         -0.0170     5.5620     6.1340 ha         1 TF6       0.105000
     36 H17          2.9960     3.6440     3.7750 ha         1 TF6       0.115000
     37 H20          3.7520     8.0210     4.4890 ha         1 TF6       0.128000
     38 H21          3.8850     9.2190     2.3140 ha         1 TF6       0.117000
     39 H2          -1.7700     0.8230     0.7640 h1         1 TF6       0.018450
     40 H2A         -0.5230     2.0040     0.3230 h1         1 TF6       0.018450
     41 H1          -0.4570     0.0890     2.6790 hc         1 TF6       0.010700
     42 H1A         -0.6330     1.8510     2.7510 hc         1 TF6       0.010700
     43 H14         -1.3040     3.4620     6.1900 ha         1 TF6       0.101000
     44 H23          1.1330     6.3720     0.7020 h4         1 TF6       0.000100
     45 C25          2.5600     8.5630     0.0210 c3         1 TF6       0.653200
@<TRIPOS>BOND
     1     1     2 1   
     2     1     6 1   
     3     1    14 1   
     4     2     3 1   
     5     2    26 1   
     6     2    27 1   
     7     3     4 1   
     8     3    28 1   
     9     3    29 1   
    10     4     5 1   
    11     4    15 1   
    12     4    30 1   
    13     5    16 1   
    14     5    31 1   
    15     5    32 1   
    16     6    13 1   
    17     6    33 1   
    18     7    16 ar  
    19     7    17 ar  
    20     7    34 1   
    21     8    17 ar  
    22     8    18 ar  
    23     8    35 1   
    24     9    16 ar  
    25     9    18 ar  
    26     9    36 1   
    27    10    11 ar  
    28    10    20 ar  
    29    10    37 1   
    30    11    12 ar  
    31    11    38 1   
    32    12    22 ar  
    33    12    45 1   
    34    14    15 1   
    35    14    39 1   
    36    14    40 1   
    37    15    41 1   
    38    15    42 1   
    39    17    43 1   
    40    18    19 1   
    41    19    20 1   
    42    20    21 ar  
    43    21    22 ar  
    44    22    44 1   
    45    23    45 1   
    46    24    45 1   
    47    25    45 1   
@<TRIPOS>SUBSTRUCTURE
     1 TF6         1 TEMP              0 ****  ****    0 ROOT
