@<TRIPOS>MOLECULE
molecule
   30    30     1     0     0
SMALL
bcc


@<TRIPOS>ATOM
      1 S1           1.8100     0.0000     0.0000 s6         1 TF7       0.288800
      2 C2           0.0000     0.0000     0.0000 c3         1 TF7      -0.194200
      3 C3          -0.5100     0.0000     1.4420 c3         1 TF7       0.046500
      4 N4          -0.1230    -1.2550     2.0990 nz         1 TF7      -0.953600
      5 C9           0.0920     1.1640     2.1870 c          1 TF7       0.855600
      6 O10         -0.4230     2.3950     2.0400 o          1 TF7      -0.769800
      7 O11          1.0380     0.9890     2.9180 o          1 TF7      -0.769800
      8 O12          1.8110     0.4760    -1.5900 oh         1 TF7      -0.618200
      9 O13          3.4700     0.0010     0.0290 oh         1 TF7      -0.618200
     10 C14         -0.5090    -1.2500    -0.7210 c3         1 TF7       0.078300
     11 N15          0.0350    -1.2880    -2.0670 na         1 TF7       0.131400
     12 N16          0.0370    -0.2580    -2.9590 nc         1 TF7      -0.180800
     13 N17          0.6370    -0.6930    -4.1030 nd         1 TF7      -0.349000
     14 C18          0.9940    -1.9530    -3.9230 cd         1 TF7       0.269200
     15 C19          0.6150    -2.3270    -2.6410 cc         1 TF7      -0.307600
     16 C20         -0.5100     1.2480    -0.7220 c3         1 TF7      -0.071100
     17 H3          -1.5900     0.0900     1.4430 hx         1 TF7       0.109700
     18 HN4         -0.9270    -1.6670     2.5300 hn         1 TF7       0.483800
     19 HN4A         0.5690    -1.0670     2.7970 hn         1 TF7       0.483800
     20 HO12         2.6980     0.5130    -1.9070 ho         1 TF7       0.427500
     21 HO13         3.7980    -0.4010    -0.7580 ho         1 TF7       0.427500
     22 H14         -0.1940    -2.1330    -0.1790 h1         1 TF7       0.048700
     23 H14A        -1.5910    -1.2230    -0.7700 h1         1 TF7       0.048700
     24 H18          1.4950    -2.5830    -4.6480 h4         1 TF7       0.049100
     25 H19          0.7680    -3.3010    -2.1910 h4         1 TF7       0.168000
     26 H20         -1.4990     1.0570    -1.1190 hc         1 TF7       0.073700
     27 H20A        -0.5530     2.0760    -0.0250 hc         1 TF7       0.073700
     28 H20B         0.1630     1.4960    -1.5340 hc         1 TF7       0.073700
     29 HS1          2.2530    -1.1130    -0.5730 hs         1 TF7       0.212800
     30 H43          0.8600    -1.4010     1.9860 hn         1 TF7       0.483800
@<TRIPOS>BOND
     1     8     1 1
     2     1     2 1
     3     1     9 1
     4    10     2 1
     5     2    16 1
     6     2     3 1
     7     4     3 1
     8     3     5 1
     9     3    17 1
    10     4    18 1
    11     4    19 1
    12     6     5 1
    13     5     7 1
    14     8    20 1
    15     9    21 1
    16    11    10 1
    17    10    22 1
    18    10    23 1
    19    15    11 1
    20    12    11 1
    21    13    12 2
    22    14    13 1
    23    14    15 2
    24    14    24 1
    25    15    25 1
    26    16    26 1
    27    16    27 1
    28    16    28 1
    29     1    29 1
    30    30     4 1
@<TRIPOS>SUBSTRUCTURE
     1 TF7         1 TEMP              0 ****  ****    0 ROOT
