@<TRIPOS>MOLECULE
TF7
   30    30     1     0     0
SMALL
bcc


@<TRIPOS>ATOM
      1 S1           1.8100     0.0000     0.0000 s6         1 TF7      -0.065200
      2 C2           0.0000     0.0000     0.0000 c3         1 TF7      -0.092200
      3 C3          -0.5100     0.0000     1.4420 c3         1 TF7      -0.074500
      4 N4          -0.1230    -1.2550     2.0990 nz         1 TF7      -0.248600
      5 C9           0.0920     1.1640     2.1870 c          1 TF7       0.957600
      6 O10         -0.4230     2.3950     2.0400 o          1 TF7      -0.804300
      7 O11          1.0380     0.9890     2.9180 o          1 TF7      -0.804300
      8 O12          1.8110     0.4760    -1.5900 oh         1 TF7      -0.544200
      9 O13          3.4700     0.0010     0.0290 oh         1 TF7      -0.544200
     10 C14         -0.5090    -1.2500    -0.7210 c3         1 TF7      -0.026700
     11 N15          0.0350    -1.2880    -2.0670 na         1 TF7       0.623400
     12 N16          0.0370    -0.2580    -2.9590 nc         1 TF7      -0.385800
     13 N17          0.6370    -0.6930    -4.1030 nd         1 TF7      -0.285000
     14 C18          0.9940    -1.9530    -3.9230 cd         1 TF7       0.300200
     15 C19          0.6150    -2.3270    -2.6410 cc         1 TF7      -0.483600
     16 C20         -0.5100     1.2480    -0.7220 c3         1 TF7      -0.024100
     17 H3          -1.5900     0.0900     1.4430 hx         1 TF7       0.079700
     18 HN4         -0.9270    -1.6670     2.5300 hn         1 TF7       0.296133
     19 HN4A         0.5690    -1.0670     2.7970 hn         1 TF7       0.296133
     20 HO12         2.6980     0.5130    -1.9070 ho         1 TF7       0.406000
     21 HO13         3.7980    -0.4010    -0.7580 ho         1 TF7       0.406000
     22 H14         -0.1940    -2.1330    -0.1790 h1         1 TF7       0.020700
     23 H14A        -1.5910    -1.2230    -0.7700 h1         1 TF7       0.020700
     24 H18          1.4950    -2.5830    -4.6480 h4         1 TF7       0.012100
     25 H19          0.7680    -3.3010    -2.1910 h4         1 TF7       0.152000
     26 H20         -1.4990     1.0570    -1.1190 hc         1 TF7       0.053367
     27 H20A        -0.5530     2.0760    -0.0250 hc         1 TF7       0.053367
     28 H20B         0.1630     1.4960    -1.5340 hc         1 TF7       0.053367
     29 HS1          2.2530    -1.1130    -0.5730 hs         1 TF7       0.355800
     30 H43          0.8600    -1.4010     1.9860 hn         1 TF7       0.296133
@<TRIPOS>BOND
     1     1     2 1   
     2     1     8 1   
     3     1     9 1   
     4     1    29 1   
     5     2     3 1   
     6     2    10 1   
     7     2    16 1   
     8     3     4 1   
     9     3     5 1   
    10     3    17 1   
    11     4    18 1   
    12     4    19 1   
    13     4    30 1   
    14     5     6 1   
    15     5     7 1   
    16     8    20 1   
    17     9    21 1   
    18    10    11 1   
    19    10    22 1   
    20    10    23 1   
    21    11    12 1   
    22    11    15 1   
    23    12    13 2   
    24    13    14 1   
    25    14    15 2   
    26    14    24 1   
    27    15    25 1   
    28    16    26 1   
    29    16    27 1   
    30    16    28 1   
@<TRIPOS>SUBSTRUCTURE
     1 TF7         1 TEMP              0 ****  ****    0 ROOT
