@<TRIPOS>MOLECULE
TFA
    7     6     1     0     0
SMALL
bcc


@<TRIPOS>ATOM
      1 C1          1.0920    0.1090   -0.0010 c         1 TFA      0.944600
      2 C2         -0.5210   -0.0330    0.0010 c3        1 TFA      0.439900
      3 O           1.5210    1.2790   -0.0040 o         1 TFA     -0.764800
      4 F1         -1.2230    1.1470    0.0060 f         1 TFA     -0.285633
      5 F2         -1.0420   -0.7030   -1.0810 f         1 TFA     -0.285633
      6 F3         -1.0380   -0.7110    1.0800 f         1 TFA     -0.285633
      7 OXT         1.7120   -0.9730   -0.0000 o         1 TFA     -0.764800
@<TRIPOS>BOND
     1    1    2 1   
     2    1    3 1   
     3    1    7 1   
     4    2    4 1   
     5    2    5 1   
     6    2    6 1   
@<TRIPOS>SUBSTRUCTURE
     1 TFA         1 TEMP              0 ****  ****    0 ROOT
