@<TRIPOS>MOLECULE
molecule
    7     6     1     0     0
SMALL
bcc


@<TRIPOS>ATOM
      1 C1           0.9450     0.1180    -0.0020 c          1 TFA       0.864600
      2 C2          -0.5550    -0.0280    -0.0000 c3         1 TFA       0.489900
      3 O            1.4450     1.2180    -0.0000 o          1 TFA      -0.790800
      4 F1          -1.1470     1.2400     0.0040 f          1 TFA      -0.257633
      5 F2          -0.9570    -0.7260    -1.1430 f          1 TFA      -0.257633
      6 F3          -0.9540    -0.7320     1.1410 f          1 TFA      -0.257633
      7 OXT          1.7250    -0.9740    -0.0000 o          1 TFA      -0.790800
@<TRIPOS>BOND
     1     1     2 1
     2     1     3 1
     3     1     7 1
     4     2     4 1
     5     2     5 1
     6     2     6 1
@<TRIPOS>SUBSTRUCTURE
     1 TFA         1 TEMP              0 ****  ****    0 ROOT
