@<TRIPOS>MOLECULE
molecule
   15    15     1     0     0
SMALL
bcc


@<TRIPOS>ATOM
      1 OA           0.0000     0.0000     0.0000 os         1 TFB      -0.384600
      2 CA           1.4430     0.0000     0.0000 c3         1 TFB       0.026100
      3 C            1.9690    -1.2360    -0.6830 c          1 TFB       0.898600
      4 OXT          3.2900    -1.4610    -0.7400 o          1 TFB      -0.836300
      5 CB           1.8420     0.0000     1.4910 c3         1 TFB      -0.084400
      6 CG           0.6140     0.6070     2.2080 c3         1 TFB      -0.125400
      7 CD          -0.3800     0.9020     1.0630 c3         1 TFB       0.116400
      8 OB           1.2000    -2.0230    -1.1800 o          1 TFB      -0.836300
      9 HA           1.8170     0.8930    -0.4870 h1         1 TFB       0.027700
     10 HB1          2.0180    -1.0120     1.8360 hc         1 TFB       0.049200
     11 HB2          2.7160     0.6200     1.6490 hc         1 TFB       0.049200
     12 HG1          0.8880     1.5230     2.7170 hc         1 TFB       0.027700
     13 HG2          0.1890    -0.1090     2.9020 hc         1 TFB       0.027700
     14 HD1         -1.3940     0.6980     1.3840 h1         1 TFB       0.022200
     15 HD2         -0.2810     1.9300     0.7360 h1         1 TFB       0.022200
@<TRIPOS>BOND
     1     1     2 1
     2     1     7 1
     3     2     3 1
     4     2     5 1
     5     2     9 1
     6     3     4 1
     7     3     8 1
     8     5     6 1
     9     5    10 1
    10     5    11 1
    11     6     7 1
    12     6    12 1
    13     6    13 1
    14     7    14 1
    15     7    15 1
@<TRIPOS>SUBSTRUCTURE
     1 TFB         1 TEMP              0 ****  ****    0 ROOT
