@<TRIPOS>MOLECULE
TFB
   15    15     1     0     0
SMALL
bcc


@<TRIPOS>ATOM
      1 OA          0.5520    0.7900   -0.2990 os        1 TFB     -0.425600
      2 CA          1.7710    0.1120    0.0610 c3        1 TFB      0.015100
      3 C           1.7760   -1.3530   -0.4490 c         1 TFB      0.907600
      4 OXT         2.7370   -1.6850   -1.1980 o         1 TFB     -0.838800
      5 CB          1.8830    0.1720    1.5890 c3        1 TFB     -0.087400
      6 CG          0.5250    0.6560    2.0840 c3        1 TFB     -0.098400
      7 CD         -0.3280    0.7940    0.8230 c3        1 TFB      0.137400
      8 OB          0.8600   -2.1330   -0.0690 o         1 TFB     -0.838800
      9 HA          2.5830    0.6950   -0.4470 h1        1 TFB      0.047700
     10 HB1         2.6960    0.8700    1.9050 hc        1 TFB      0.037700
     11 HB2         2.1170   -0.8440    1.9920 hc        1 TFB      0.037700
     12 HG1         0.6150    1.6360    2.6130 hc        1 TFB      0.024700
     13 HG2         0.0670   -0.0770    2.7910 hc        1 TFB      0.024700
     14 HD1        -1.0380   -0.0660    0.7200 h1        1 TFB      0.029200
     15 HD2        -0.8850    1.7640    0.7790 h1        1 TFB      0.029200
@<TRIPOS>BOND
     1    1    2 1   
     2    1    7 1   
     3    2    3 1   
     4    2    5 1   
     5    2    9 1   
     6    3    4 1   
     7    3    8 1   
     8    5    6 1   
     9    5   10 1   
    10    5   11 1   
    11    6    7 1   
    12    6   12 1   
    13    6   13 1   
    14    7   14 1   
    15    7   15 1   
@<TRIPOS>SUBSTRUCTURE
     1 TFB         1 TEMP              0 ****  ****    0 ROOT
