@<TRIPOS>MOLECULE
molecule
   35    34     1     0     0
SMALL
bcc


@<TRIPOS>ATOM
      1 C1           0.0000     0.0000     0.0000 c3         1 TFC      -0.092100
      2 C2           1.5290     0.0000     0.0000 c3         1 TFC      -0.084400
      3 C3           2.0400     0.0000     1.4420 c3         1 TFC      -0.081400
      4 C4           3.5700     0.0010     1.4410 c3         1 TFC      -0.082400
      5 C5           4.0800     0.0010     2.8840 c3         1 TFC      -0.081400
      6 C6           5.6100     0.0010     2.8840 c3         1 TFC      -0.080400
      7 C7           6.1200     0.0010     4.3260 c3         1 TFC      -0.067400
      8 C8           7.6500     0.0020     4.3260 c3         1 TFC       0.000700
      9 S1           8.2560     0.0030     6.0360 ss         1 TFC      -0.277200
     10 C9          10.0440     0.0020     5.7370 c3         1 TFC      -0.099300
     11 C10         10.7740     0.0030     7.0560 c          1 TFC       0.531100
     12 O1          10.1510     0.0020     8.0910 o          1 TFC      -0.422100
     13 C11         12.2810     0.0030     7.0840 c3         1 TFC       0.533900
     14 F1          12.7350    -1.1390     7.7520 f          1 TFC      -0.211300
     15 F2          12.7710     0.0030     5.7730 f          1 TFC      -0.211300
     16 F3          12.7350     1.1450     7.7520 f          1 TFC      -0.211300
     17 H11         -0.3610    -0.0000    -1.0210 hc         1 TFC       0.033367
     18 H12         -0.3610     0.8850     0.5100 hc         1 TFC       0.033367
     19 H13         -0.3610    -0.8840     0.5110 hc         1 TFC       0.033367
     20 H21          1.8910     0.8840    -0.5110 hc         1 TFC       0.039700
     21 H22          1.8910    -0.8840    -0.5110 hc         1 TFC       0.039700
     22 H31          1.6780     0.8840     1.9530 hc         1 TFC       0.041700
     23 H32          1.6800    -0.8850     1.9530 hc         1 TFC       0.041700
     24 H41          3.9300     0.8860     0.9310 hc         1 TFC       0.041700
     25 H42          3.9310    -0.8830     0.9300 hc         1 TFC       0.041700
     26 H51          3.7190    -0.8840     3.3950 hc         1 TFC       0.043700
     27 H52          3.7190     0.8860     3.3950 hc         1 TFC       0.043700
     28 H61          5.9710     0.8860     2.3730 hc         1 TFC       0.042700
     29 H62          5.9710    -0.8840     2.3730 hc         1 TFC       0.042700
     30 H71          5.7580     0.8850     4.8370 hc         1 TFC       0.056700
     31 H72          5.7600    -0.8840     4.8360 hc         1 TFC       0.056700
     32 H81          8.0110     0.8870     3.8160 h1         1 TFC       0.058700
     33 H82          8.0120    -0.8820     3.8160 h1         1 TFC       0.058700
     34 H91         10.3160    -0.8820     5.1740 h1         1 TFC       0.093200
     35 H92         10.3160     0.8870     5.1740 h1         1 TFC       0.093200
@<TRIPOS>BOND
     1     1     2 1
     2     1    17 1
     3     1    18 1
     4     1    19 1
     5     2     3 1
     6     2    20 1
     7     2    21 1
     8     3     4 1
     9     3    22 1
    10     3    23 1
    11     4     5 1
    12     4    24 1
    13     4    25 1
    14     5     6 1
    15     5    26 1
    16     5    27 1
    17     6     7 1
    18     6    28 1
    19     6    29 1
    20     7     8 1
    21     7    30 1
    22     7    31 1
    23     8     9 1
    24     8    32 1
    25     8    33 1
    26     9    10 1
    27    10    11 1
    28    10    34 1
    29    10    35 1
    30    11    12 2
    31    11    13 1
    32    13    14 1
    33    13    15 1
    34    13    16 1
@<TRIPOS>SUBSTRUCTURE
     1 TFC         1 TEMP              0 ****  ****    0 ROOT
