@<TRIPOS>MOLECULE
TFC
   35    34     1     0     0
SMALL
bcc


@<TRIPOS>ATOM
      1 C1          0.4630   -0.6140   -0.0880 c3        1 TFC     -0.093100
      2 C2          1.9550   -0.4560    0.0460 c3        1 TFC     -0.080400
      3 C3          2.3630   -0.2440    1.4890 c3        1 TFC     -0.079400
      4 C4          3.8630   -0.0880    1.6190 c3        1 TFC     -0.079400
      5 C5          4.2690    0.1250    3.0620 c3        1 TFC     -0.079400
      6 C6          5.7700    0.2790    3.1910 c3        1 TFC     -0.076400
      7 C7          6.1720    0.4930    4.6360 c3        1 TFC     -0.071400
      8 C8          7.6670    0.6430    4.7590 c3        1 TFC     -0.028300
      9 S1          8.0050    0.9010    6.4780 ss        1 TFC     -0.229200
     10 C9          9.7510    1.1150    6.5270 c3        1 TFC     -0.135300
     11 C10        10.4820   -0.1530    6.8030 c         1 TFC      0.553100
     12 O1         10.6530   -0.6590    7.9030 o         1 TFC     -0.433100
     13 C11        11.1100   -0.8650    5.5490 c3        1 TFC      0.522900
     14 F1         12.0930   -1.7620    5.8650 f         1 TFC     -0.226967
     15 F2         10.2040   -1.5740    4.8040 f         1 TFC     -0.226967
     16 F3         11.6950    0.0010    4.6600 f         1 TFC     -0.226967
     17 H11        -0.0660    0.2970    0.2860 hc        1 TFC      0.033033
     18 H12         0.1040   -1.4920    0.5000 hc        1 TFC      0.033033
     19 H13         0.1840   -0.7680   -1.1580 hc        1 TFC      0.033033
     20 H21         2.4680   -1.3690   -0.3570 hc        1 TFC      0.038700
     21 H22         2.3000    0.4150   -0.5710 hc        1 TFC      0.038700
     22 H31         2.0210   -1.1150    2.1080 hc        1 TFC      0.040200
     23 H32         1.8530    0.6690    1.8930 hc        1 TFC      0.040200
     24 H41         4.3730   -1.0020    1.2160 hc        1 TFC      0.040200
     25 H42         4.2060    0.7820    1.0000 hc        1 TFC      0.040200
     26 H51         3.9260   -0.7450    3.6820 hc        1 TFC      0.042200
     27 H52         3.7600    1.0400    3.4650 hc        1 TFC      0.042200
     28 H61         6.1140    1.1490    2.5710 hc        1 TFC      0.043200
     29 H62         6.2790   -0.6370    2.7910 hc        1 TFC      0.043200
     30 H71         5.6630    1.4120    5.0350 hc        1 TFC      0.057700
     31 H72         5.8250   -0.3770    5.2550 hc        1 TFC      0.057700
     32 H81         8.1870   -0.2740    4.3870 h1        1 TFC      0.069700
     33 H82         8.0290    1.5100    4.1550 h1        1 TFC      0.069700
     34 H91        10.1310    1.5840    5.5850 h1        1 TFC      0.113700
     35 H92         9.9430    1.8270    7.3750 h1        1 TFC      0.113700
@<TRIPOS>BOND
     1    1    2 1   
     2    1   17 1   
     3    1   18 1   
     4    1   19 1   
     5    2    3 1   
     6    2   20 1   
     7    2   21 1   
     8    3    4 1   
     9    3   22 1   
    10    3   23 1   
    11    4    5 1   
    12    4   24 1   
    13    4   25 1   
    14    5    6 1   
    15    5   26 1   
    16    5   27 1   
    17    6    7 1   
    18    6   28 1   
    19    6   29 1   
    20    7    8 1   
    21    7   30 1   
    22    7   31 1   
    23    8    9 1   
    24    8   32 1   
    25    8   33 1   
    26    9   10 1   
    27   10   11 1   
    28   10   34 1   
    29   10   35 1   
    30   11   12 2   
    31   11   13 1   
    32   13   14 1   
    33   13   15 1   
    34   13   16 1   
@<TRIPOS>SUBSTRUCTURE
     1 TFC         1 TEMP              0 ****  ****    0 ROOT
