@<TRIPOS>MOLECULE
TFD
   44    46     1     0     0
SMALL
bcc


@<TRIPOS>ATOM
      1 F1           0.0000     0.0000     0.0000 f          1 TFD      -0.204300
      2 C18          1.3990     0.0000     0.0000 c3         1 TFD       0.537600
      3 F2           1.8660     0.0000     1.3180 f          1 TFD      -0.204300
      4 F3           1.8650    -1.1420    -0.6600 f          1 TFD      -0.204300
      5 C14          1.9020     1.2300    -0.7110 ca         1 TFD       0.314600
      6 N6           1.0410     2.1420    -1.1230 nb         1 TFD      -0.586000
      7 C15          3.2570     1.3910    -0.9200 ca         1 TFD      -0.229300
      8 C16          3.7140     2.5270    -1.5740 ca         1 TFD      -0.020000
      9 C17          2.7870     3.4620    -1.9980 ca         1 TFD      -0.282300
     10 C13          1.4370     3.2380    -1.7500 ca         1 TFD       0.515200
     11 N5           0.4950     4.1720    -2.1660 nu         1 TFD      -0.505900
     12 C11          0.9270     5.3880    -2.8620 c3         1 TFD       0.149800
     13 C10         -0.2960     6.2390    -3.2070 c3         1 TFD       0.154800
     14 N4           0.1350     7.4540    -3.9030 nu         1 TFD      -0.496900
     15 C7          -0.8040     8.3850    -4.3170 ca         1 TFD       0.551200
     16 C8          -0.4040     9.5470    -4.9870 ca         1 TFD      -0.369200
     17 Cl           1.2740     9.8490    -5.3160 cl         1 TFD       0.000600
     18 N3          -2.0960     8.1860    -4.0900 nb         1 TFD      -0.653000
     19 C6          -2.9960     9.0760    -4.4850 cp         1 TFD       0.600000
     20 N2          -2.6470    10.1870    -5.1170 nb         1 TFD      -0.663000
     21 C9          -1.3750    10.4470    -5.3820 ca         1 TFD       0.464600
     22 C12         -0.9930    11.7110    -6.1080 c3         1 TFD      -0.049400
     23 C5          -4.4330     8.8210    -4.2130 cp         1 TFD       0.303300
     24 N1          -4.7960     7.7120    -3.5820 nb         1 TFD      -0.532000
     25 C1          -6.0590     7.4480    -3.3210 ca         1 TFD       0.387200
     26 C2          -7.0610     8.3240    -3.7000 ca         1 TFD      -0.206300
     27 C3          -6.7250     9.4960    -4.3630 ca         1 TFD      -0.084000
     28 C4          -5.3870     9.7500    -4.6190 ca         1 TFD      -0.172300
     29 H1           3.9570     0.6390    -0.5750 ha         1 TFD       0.126000
     30 H2           4.7720     2.6760    -1.7520 ha         1 TFD       0.110000
     31 H3           3.1090     4.3600    -2.5120 ha         1 TFD       0.124000
     32 H4          -0.4770     4.0160    -1.9890 hn         1 TFD       0.310800
     33 H5           1.5910     5.9540    -2.2210 h1         1 TFD       0.017200
     34 H6           1.4480     5.1170    -3.7720 h1         1 TFD       0.017200
     35 H7          -0.9610     5.6720    -3.8480 h1         1 TFD       0.036700
     36 H8          -0.8170     6.5090    -2.2970 h1         1 TFD       0.036700
     37 H9           1.1080     7.6120    -4.0780 hn         1 TFD       0.303800
     38 H10         -1.8850    12.2850    -6.3290 hc         1 TFD       0.022367
     39 H11         -0.4870    11.4590    -7.0320 hc         1 TFD       0.022367
     40 H12         -0.3310    12.2990    -5.4830 hc         1 TFD       0.022367
     41 H13         -6.3180     6.5330    -2.8030 h4         1 TFD      -0.018900
     42 H14         -8.0980     8.0970    -3.4820 ha         1 TFD       0.112000
     43 H15         -7.4910    10.1990    -4.6690 ha         1 TFD       0.110000
     44 H16         -5.0890    10.6540    -5.1350 ha         1 TFD       0.134000
@<TRIPOS>BOND
     1     1     2 1   
     2     2     3 1   
     3     2     4 1   
     4     2     5 1   
     5     5     6 ar  
     6     5     7 ar  
     7     6    10 ar  
     8     7     8 ar  
     9     7    29 1   
    10     8     9 ar  
    11     8    30 1   
    12     9    10 ar  
    13     9    31 1   
    14    10    11 1   
    15    11    12 1   
    16    11    32 1   
    17    12    13 1   
    18    12    33 1   
    19    12    34 1   
    20    13    14 1   
    21    13    35 1   
    22    13    36 1   
    23    14    15 1   
    24    14    37 1   
    25    15    16 ar  
    26    15    18 ar  
    27    16    17 1   
    28    16    21 ar  
    29    18    19 ar  
    30    19    20 ar  
    31    19    23 1   
    32    20    21 ar  
    33    21    22 1   
    34    22    38 1   
    35    22    39 1   
    36    22    40 1   
    37    23    24 ar  
    38    23    28 ar  
    39    24    25 ar  
    40    25    26 ar  
    41    25    41 1   
    42    26    27 ar  
    43    26    42 1   
    44    27    28 ar  
    45    27    43 1   
    46    28    44 1   
@<TRIPOS>SUBSTRUCTURE
     1 TFD         1 TEMP              0 ****  ****    0 ROOT
