@<TRIPOS>MOLECULE
molecule
   44    46     1     0     0
SMALL
bcc


@<TRIPOS>ATOM
      1 F1           0.0000     0.0000     0.0000 f          1 TFD      -0.215633
      2 C18          1.3990     0.0000     0.0000 c3         1 TFD       0.583600
      3 F2           1.8660     0.0000     1.3180 f          1 TFD      -0.215633
      4 F3           1.8650    -1.1420    -0.6600 f          1 TFD      -0.215633
      5 C14          1.9020     1.2300    -0.7110 ca         1 TFD       0.388600
      6 N6           1.0410     2.1420    -1.1230 nb         1 TFD      -0.724000
      7 C15          3.2570     1.3910    -0.9200 ca         1 TFD      -0.266300
      8 C16          3.7140     2.5270    -1.5740 ca         1 TFD      -0.053000
      9 C17          2.7870     3.4620    -1.9980 ca         1 TFD      -0.299300
     10 C13          1.4370     3.2380    -1.7500 ca         1 TFD       0.709200
     11 N5           0.4950     4.1720    -2.1660 nu         1 TFD      -0.914900
     12 C11          0.9270     5.3880    -2.8620 c3         1 TFD       0.219800
     13 C10         -0.2960     6.2390    -3.2070 c3         1 TFD       0.224800
     14 N4           0.1350     7.4540    -3.9030 nu         1 TFD      -0.904900
     15 C7          -0.8040     8.3850    -4.3170 ca         1 TFD       0.742200
     16 C8          -0.4040     9.5470    -4.9870 ca         1 TFD      -0.298200
     17 Cl           1.2740     9.8490    -5.3160 cl         1 TFD      -0.102400
     18 N3          -2.0960     8.1860    -4.0900 nb         1 TFD      -0.762000
     19 C6          -2.9960     9.0760    -4.4850 cp         1 TFD       0.688000
     20 N2          -2.6470    10.1870    -5.1170 nb         1 TFD      -0.772000
     21 C9          -1.3750    10.4470    -5.3820 ca         1 TFD       0.512600
     22 C12         -0.9930    11.7110    -6.1080 c3         1 TFD      -0.145400
     23 C5          -4.4330     8.8210    -4.2130 cp         1 TFD       0.371300
     24 N1          -4.7960     7.7120    -3.5820 nb         1 TFD      -0.651000
     25 C1          -6.0590     7.4480    -3.3210 ca         1 TFD       0.412200
     26 C2          -7.0610     8.3240    -3.7000 ca         1 TFD      -0.239300
     27 C3          -6.7250     9.4960    -4.3630 ca         1 TFD      -0.107000
     28 C4          -5.3870     9.7500    -4.6190 ca         1 TFD      -0.201300
     29 H1           3.9570     0.6390    -0.5750 ha         1 TFD       0.150000
     30 H2           4.7720     2.6760    -1.7520 ha         1 TFD       0.144000
     31 H3           3.1090     4.3600    -2.5120 ha         1 TFD       0.141000
     32 H4          -0.4770     4.0160    -1.9890 hn         1 TFD       0.460800
     33 H5           1.5910     5.9540    -2.2210 h1         1 TFD       0.044200
     34 H6           1.4480     5.1170    -3.7720 h1         1 TFD       0.044200
     35 H7          -0.9610     5.6720    -3.8480 h1         1 TFD       0.066700
     36 H8          -0.8170     6.5090    -2.2970 h1         1 TFD       0.066700
     37 H9           1.1080     7.6120    -4.0780 hn         1 TFD       0.457800
     38 H10         -1.8850    12.2850    -6.3290 hc         1 TFD       0.062367
     39 H11         -0.4870    11.4590    -7.0320 hc         1 TFD       0.062367
     40 H12         -0.3310    12.2990    -5.4830 hc         1 TFD       0.062367
     41 H13         -6.3180     6.5330    -2.8030 h4         1 TFD       0.027100
     42 H14         -8.0980     8.0970    -3.4820 ha         1 TFD       0.139000
     43 H15         -7.4910    10.1990    -4.6690 ha         1 TFD       0.142000
     44 H16         -5.0890    10.6540    -5.1350 ha         1 TFD       0.163000
@<TRIPOS>BOND
     1     1     2 1
     2     3     2 1
     3     7     8 ar
     4     7     5 ar
     5     2     5 1
     6     2     4 1
     7     8     9 ar
     8     5     6 ar
     9     9    10 ar
    10     6    10 ar
    11    10    11 1
    12    22    21 1
    13    17    16 1
    14    21    16 ar
    15    21    20 ar
    16    16    15 ar
    17    11    12 1
    18    20    19 ar
    19    15    14 1
    20    15    18 ar
    21    14    13 1
    22    19    18 ar
    23    19    23 1
    24    12    13 1
    25    23    24 ar
    26    23    28 ar
    27    24    25 ar
    28    28    27 ar
    29    25    26 ar
    30    27    26 ar
    31     7    29 1
    32     8    30 1
    33     9    31 1
    34    11    32 1
    35    12    33 1
    36    12    34 1
    37    13    35 1
    38    13    36 1
    39    14    37 1
    40    22    38 1
    41    22    39 1
    42    22    40 1
    43    25    41 1
    44    26    42 1
    45    27    43 1
    46    28    44 1
@<TRIPOS>SUBSTRUCTURE
     1 TFD         1 TEMP              0 ****  ****    0 ROOT
