@<TRIPOS>MOLECULE
molecule
   45    48     1     0     0
SMALL
bcc


@<TRIPOS>ATOM
      1 C14          0.0000     0.0000     0.0000 ca         1 TFG      -0.122500
      2 C15          1.3880     0.0000     0.0000 ca         1 TFG      -0.125500
      3 C16          2.0940     0.0000     1.2030 ca         1 TFG      -0.125000
      4 C17          1.4120     0.0050     2.4190 ca         1 TFG      -0.125500
      5 C18          0.0190     0.0040     2.4140 ca         1 TFG      -0.122500
      6 C13         -0.6930    -0.0070     1.2100 ca         1 TFG      -0.021000
      7 C19         -2.0900     0.0320     1.2020 cc         1 TFG      -0.148600
      8 C12         -2.9860    -0.4550     0.3460 cd         1 TFG       0.335200
      9 N3          -4.2150    -0.1170     0.7590 nd         1 TFG      -0.678000
     10 C11         -4.1300     0.6070     1.8730 cc         1 TFG       0.367800
     11 C10         -5.2530     1.2340     2.7210 c3         1 TFG       0.110700
     12 N2          -2.7710     0.7280     2.1810 na         1 TFG      -0.202900
     13 C9          -2.2570     1.4460     3.3510 c3         1 TFG       0.031300
     14 C8          -3.3090     2.3770     3.8640 c3         1 TFG       0.076000
     15 N1          -4.6190     1.6920     3.9530 n          1 TFG      -0.469800
     16 C7          -5.0930     1.5180     5.1800 c          1 TFG       0.700700
     17 O1          -4.3860     1.9940     6.0720 o          1 TFG      -0.636100
     18 C4          -6.4400     0.9540     5.6150 cc         1 TFG      -0.153700
     19 S1          -6.6950     0.3860     7.1630 ss         1 TFG       0.158200
     20 C3          -7.6130     0.9720     4.9720 cd         1 TFG      -0.141000
     21 C2          -8.6560     0.4880     5.6990 cd         1 TFG      -0.135000
     22 C1          -8.3430     0.1020     6.9550 cc         1 TFG      -0.134400
     23 C5          -9.2610    -0.4600     8.0810 c3         1 TFG       0.362900
     24 C6         -10.5680    -1.0870     7.5940 c3         1 TFG       0.696900
     25 F1         -11.2190    -0.2520     6.7890 f          1 TFG      -0.218300
     26 F2         -10.3060    -2.2290     7.0030 f          1 TFG      -0.218300
     27 F3         -11.3210    -1.3360     8.6420 f          1 TFG      -0.218300
     28 O3          -9.6240     0.6320     8.9820 oh         1 TFG      -0.609800
     29 O2          -8.5510    -1.4090     8.9020 oh         1 TFG      -0.609800
     30 H14         -0.5430    -0.0040    -0.9370 ha         1 TFG       0.134500
     31 H15          1.9270     0.0010    -0.9400 ha         1 TFG       0.134000
     32 H16          3.1770     0.0000     1.1920 ha         1 TFG       0.132000
     33 H17          1.9580     0.0090     3.3540 ha         1 TFG       0.134000
     34 H18         -0.5190     0.0030     3.3550 ha         1 TFG       0.134500
     35 H12         -2.7580    -1.0270    -0.5460 h4         1 TFG       0.045100
     36 H101        -5.9750     0.4650     2.9660 h1         1 TFG       0.083200
     37 H102        -5.6500     2.0920     2.1930 h1         1 TFG       0.083200
     38 H9C1        -1.9980     0.7350     4.1250 h1         1 TFG       0.071700
     39 H9C2        -1.3800     2.0160     3.0670 h1         1 TFG       0.071700
     40 H8C1        -3.0240     2.7280     4.8480 h1         1 TFG       0.088700
     41 H8C2        -3.3950     3.2220     3.1900 h1         1 TFG       0.088700
     42 H3          -7.7190     1.3190     3.9510 ha         1 TFG       0.155000
     43 H2          -9.6630     0.4270     5.3050 ha         1 TFG       0.165000
     44 HA          -9.7730     0.2900     9.8480 ho         1 TFG       0.427000
     45 HB          -8.1110    -0.9540     9.6010 ho         1 TFG       0.427000
@<TRIPOS>BOND
     1     1     2 ar
     2     1     6 ar
     3     2     3 ar
     4     3     4 ar
     5     4     5 ar
     6     5     6 ar
     7     6     7 1
     8     7     8 2
     9     7    12 1
    10     8     9 1
    11     9    10 2
    12    10    11 1
    13    10    12 1
    14    11    15 1
    15    12    13 1
    16    13    14 1
    17    14    15 1
    18    15    16 1
    19    16    17 2
    20    16    18 1
    21    18    19 1
    22    18    20 2
    23    19    22 1
    24    20    21 1
    25    21    22 2
    26    22    23 1
    27    23    24 1
    28    23    28 1
    29    23    29 1
    30    24    25 1
    31    24    26 1
    32    24    27 1
    33     1    30 1
    34     2    31 1
    35     3    32 1
    36     4    33 1
    37     5    34 1
    38     8    35 1
    39    11    36 1
    40    11    37 1
    41    13    38 1
    42    13    39 1
    43    14    40 1
    44    14    41 1
    45    20    42 1
    46    21    43 1
    47    28    44 1
    48    29    45 1
@<TRIPOS>SUBSTRUCTURE
     1 TFG         1 TEMP              0 ****  ****    0 ROOT
