@<TRIPOS>MOLECULE
TFI
   56    54     1     0     0
SMALL
bcc


@<TRIPOS>ATOM
      1 C1          0.4310    0.8440    2.7030 c3        1 TFI      0.389000
      2 C2          1.2890    0.7280    1.3850 c2        1 TFI      0.231000
      3 C3          0.6910    1.1150    0.2400 c1        1 TFI     -0.071000
      4 C4          0.0920    1.6760   -0.8950 c3        1 TFI     -0.037000
      5 C5          0.7720    2.9290   -1.4230 c3        1 TFI     -0.213000
      6 C6         -0.1800    0.6770   -2.0110 c3        1 TFI     -0.213000
      7 C8          6.3960   -1.3370    3.3230 c3        1 TFI     -0.084000
      8 C9          5.5310   -3.6140    3.3680 c2        1 TFI      0.316000
      9 C10         5.5530   -4.9800    4.0300 c2        1 TFI     -0.004000
     10 C11         6.9440   -5.3570    4.5080 c3        1 TFI     -0.119000
     11 C12         7.3670   -3.0410    4.8770 c2        1 TFI      0.149000
     12 C13         8.1020   -1.9640    5.6100 c2        1 TFI     -0.109000
     13 C14         7.5730   -1.4430    6.7280 c2        1 TFI     -0.075000
     14 C15         8.2190   -0.4160    7.5660 c3        1 TFI     -0.211000
     15 C16        10.4860   -0.2970    3.2200 c1        1 TFI     -0.197000
     16 C17         9.3750   -0.8400    3.8540 c1        1 TFI      0.041000
     17 C18         9.4480   -1.6190    5.0700 c3        1 TFI     -0.167000
     18 C19         1.5970   -5.2980    5.1960 c2        1 TFI     -1.491000
     19 N1          3.8690   -0.9160    3.5610 n4        1 TFI     -0.136000
     20 N2          6.3380   -2.6240    3.9590 n         1 TFI     -0.314000
     21 N3          7.6630   -4.2810    5.1260 n2        1 TFI     -0.173000
     22 N5         11.3250    0.2170    2.5820 n1        1 TFI      0.069000
     23 O1          2.4390    0.2390    1.5160 o         1 TFI     -0.424000
     24 O4          2.5900   -3.3160    4.1840 o         1 TFI     -0.555400
     25 O5          1.6620   -4.9470    2.7690 o         1 TFI     -0.555400
     26 F1         -0.6730    0.0380    2.7310 f         1 TFI     -0.153333
     27 F2          1.1680    0.4770    3.8020 f         1 TFI     -0.153333
     28 F3         -0.0230    2.1040    2.9760 f         1 TFI     -0.153333
     29 S1          1.9810   -4.5690    4.0490 s4        1 TFI      2.127800
     30 H3          3.1890   -0.1400    3.4940 hn        1 TFI      0.283667
     31 H4         -0.9280    1.9850   -0.4450 hc        1 TFI      0.201000
     32 H51         0.1260    3.4010   -2.2030 hc        1 TFI      0.101833
     33 H52         0.9470    3.6650   -0.6030 hc        1 TFI      0.101833
     34 H53         1.7530    2.6680   -1.8880 hc        1 TFI      0.101833
     35 H61        -0.6880   -0.2340   -1.6150 hc        1 TFI      0.101833
     36 H62         0.7790    0.3740   -2.4950 hc        1 TFI      0.101833
     37 H63        -0.8330    1.1540   -2.7820 hc        1 TFI      0.101833
     38 H81         6.3350   -1.4530    2.1960 h1        1 TFI      0.195500
     39 H82         7.3870   -0.8060    3.5610 h1        1 TFI      0.195500
     40 H11         6.8900   -6.1870    5.2740 h1        1 TFI      0.148000
     41 H14         6.5910   -1.7980    7.0880 ha        1 TFI      0.135000
     42 H15         8.6370    0.4180    6.9470 hc        1 TFI      0.105000
     43 H17        10.0240   -2.5760    4.8590 hc        1 TFI      0.165500
     44 H18        10.0510   -1.0800    5.8640 hc        1 TFI      0.165500
     45 H191        1.7500   -5.0360    6.2560 h4        1 TFI      0.233000
     46 H192        1.0580   -6.2640    5.2220 h4        1 TFI      0.233000
     47 H193        7.5370   -5.7500    3.6280 h1        1 TFI      0.148000
     48 HN1         3.7840   -1.4830    2.7010 hn        1 TFI      0.283667
     49 HN4         4.5060   -6.5240    4.5920 hn        1 TFI      0.199000
     50 HN51        7.4870    0.0220    8.2900 hc        1 TFI      0.105000
     51 HN52        9.0580   -0.8710    8.1540 hc        1 TFI      0.105000
     52 C7          5.2590   -0.4000    3.7170 c2        1 TFI      0.245000
     53 N4          4.4550   -5.6240    4.1590 n2        1 TFI     -0.262000
     54 O2          5.3820    0.7550    4.0960 o         1 TFI     -0.182000
     55 H12         3.6120   -1.5220    4.3530 hn        1 TFI      0.283667
     56 O3          4.8270   -3.3480    2.3810 o         1 TFI     -0.308000
@<TRIPOS>BOND
     1    1    2 1
     2    1   26 1
     3    1   27 1
     4    1   28 1
     5    2    3 1
     6    2   23 1
     7    3    4 1
     8    4    5 1
     9    4    6 1
    10    4   31 1
    11    5   32 1
    12    5   33 1
    13    5   34 1
    14    6   35 1
    15    6   36 1
    16    6   37 1
    17    7   20 1
    18    7   38 1
    19    7   39 1
    20    7   52 1
    21    8    9 1
    22    8   20 1
    23    8   56 1
    24    9   10 1
    25    9   53 1
    26   10   21 1
    27   10   40 1
    28   10   47 1
    29   11   12 1
    30   11   20 1
    31   11   21 1
    32   12   13 1
    33   12   17 1
    34   13   14 1
    35   13   41 1
    36   14   42 1
    37   14   50 1
    38   14   51 1
    39   15   16 1
    40   15   22 1
    41   16   17 1
    42   17   43 1
    43   17   44 1
    44   18   29 1
    45   18   45 1
    46   18   46 1
    47   19   30 1
    48   19   48 1
    49   19   52 1
    50   19   55 1
    51   24   29 1
    52   25   29 1
    53   49   53 1
    54   52   54 1
@<TRIPOS>SUBSTRUCTURE
     1 TFI         1 TEMP              0 ****  ****    0 ROOT
