@<TRIPOS>MOLECULE
TFK
   58    55     1     0     0
SMALL
bcc


@<TRIPOS>ATOM
      1 C1          1.9300   -3.2920   -0.4150 c3        1 TFK      0.375000
      2 C2          3.3470   -2.6180   -0.3610 c2        1 TFK      0.167000
      3 C3          3.5550   -1.7140    0.8290 c2        1 TFK      0.020000
      4 C4          3.8960   -0.2820    0.4570 c3        1 TFK     -0.073000
      5 C5          5.3600   -0.1960    0.0710 c3        1 TFK     -0.228500
      6 C6          3.0040    0.1960   -0.6700 c3        1 TFK     -0.228500
      7 C8          3.3100   -0.7380    4.2820 c2        1 TFK      0.232000
      8 C9          4.9370   -2.0930    5.4130 c2        1 TFK      0.310000
      9 C10         5.2030   -3.3100    6.2730 c2        1 TFK      0.053000
     10 C11         4.1460   -4.0740    6.7040 c2        1 TFK     -0.187000
     11 C12         2.8440   -3.5330    6.6720 c1        1 TFK      0.065000
     12 C13         2.4360   -2.4440    5.8090 c3        1 TFK     -0.003000
     13 C14         1.3900   -2.9420    4.8530 c2        1 TFK     -0.295000
     14 C15         0.0810   -2.7100    5.0720 c2        1 TFK      0.026000
     15 C16        -1.0070   -3.1790    4.2570 c2        1 TFK     -0.202000
     16 C17        -0.8810   -3.8800    3.1100 c2        1 TFK      0.068000
     17 C18        -1.9750   -4.3230    2.3590 c1        1 TFK     -0.214000
     18 C19        -2.9030   -4.7130    1.7050 c1        1 TFK     -0.076000
     19 C20         8.1750   -5.6130    6.0730 c2        1 TFK     -0.470000
     20 N1          3.4590   -2.1120    2.0460 n2        1 TFK     -0.305000
     21 N2          3.5700   -1.7340    5.1040 n         1 TFK     -0.180000
     22 N4          8.1650   -6.8860    5.9010 n3        1 TFK     -0.034000
     23 O1          4.1850   -2.8620   -1.2120 o         1 TFK     -0.140000
     24 O4          6.3340   -5.7050    7.8220 o         1 TFK     -0.830500
     25 O5          8.2610   -4.2680    8.2210 o         1 TFK     -0.830500
     26 F1          1.7390   -4.1040   -1.4920 f         1 TFK     -0.144333
     27 F2          1.6990   -4.0820    0.6890 f         1 TFK     -0.144333
     28 F3          0.9000   -2.3910   -0.4250 f         1 TFK     -0.144333
     29 S1          7.2180   -4.7120    7.4440 s6        1 TFK      2.807000
     30 H3          3.2230   -3.0750    2.1770 hn        1 TFK      0.161000
     31 H4          3.7210    0.3800    1.3540 hc        1 TFK      0.097000
     32 H51         5.5990    0.8490   -0.2450 hc        1 TFK      0.100833
     33 H52         6.0130   -0.4680    0.9330 hc        1 TFK      0.100833
     34 H53         5.5850   -0.8820   -0.7830 hc        1 TFK      0.100833
     35 H61         1.9270    0.0160   -0.4330 hc        1 TFK      0.100833
     36 H62         3.2530   -0.3300   -1.6250 hc        1 TFK      0.100833
     37 H63         3.1570    1.2920   -0.8280 hc        1 TFK      0.100833
     38 H81         4.1260   -0.1270    3.8370 h4        1 TFK      0.210500
     39 H82         2.2850    2.8070    6.0960 h4        1 TFK      0.110500
     40 H11         4.2620   -5.0640    7.1920 ha        1 TFK      0.221000
     41 H12         1.9850   -1.6360    6.4900 h1        1 TFK      0.208000
     42 H15        -0.2330   -2.1190    5.9570 ha        1 TFK      0.144000
     43 H16        -2.0160   -2.9330    4.6400 ha        1 TFK      0.165000
     44 H17         0.1110   -4.1430    2.6910 ha        1 TFK      0.131000
     45 H18        -3.7250   -5.0600    1.1250 ha        1 TFK      0.247000
     46 H19         1.7530   -3.5490    4.0120 ha        1 TFK      0.146000
     47 H201        9.3580   -3.0510    6.3240 ha        1 TFK      0.001500
     48 H202        9.8740   -2.6580    6.5310 ha        1 TFK      0.001500
     49 H203        8.7370   -7.3550    5.2120 hn        1 TFK      0.294000
     50 HN1         1.5810    1.8750    7.5870 h4        1 TFK      0.110500
     51 HN3         7.1330   -2.7440    6.3160 hn        1 TFK      0.302000
     52 HN4         7.5800   -7.4940    6.4670 hn        1 TFK      0.294000
     53 C7          2.0930    1.8370    6.6020 c2        1 TFK      0.203000
     54 N3          6.5480   -3.5200    6.6040 n3        1 TFK     -0.830000
     55 O2          2.4330    0.7620    6.0930 o         1 TFK     -0.416000
     56 H121        2.2500   -0.4880    4.0530 h4        1 TFK      0.210500
     57 H42         8.8430   -4.9830    5.4380 h5        1 TFK      0.220000
     58 O3          5.8570   -1.4310    4.9230 o         1 TFK     -0.231000
@<TRIPOS>BOND
     1    1    2 1
     2    1   26 1
     3    1   27 1
     4    1   28 1
     5    2    3 1
     6    2   23 1
     7    3    4 1
     8    3   20 1
     9    4    5 1
    10    4    6 1
    11    4   31 1
    12    5   32 1
    13    5   33 1
    14    5   34 1
    15    6   35 1
    16    6   36 1
    17    6   37 1
    18    7   21 1
    19    7   38 1
    20    7   56 1
    21    8    9 1
    22    8   21 1
    23    8   58 1
    24    9   10 1
    25    9   54 1
    26   10   11 1
    27   10   40 1
    28   11   12 1
    29   12   13 1
    30   12   21 1
    31   12   41 1
    32   13   14 1
    33   13   46 1
    34   14   15 1
    35   14   42 1
    36   15   16 1
    37   15   43 1
    38   16   17 1
    39   16   44 1
    40   17   18 1
    41   18   45 1
    42   19   22 1
    43   19   29 1
    44   19   57 1
    45   20   30 1
    46   22   49 1
    47   22   52 1
    48   24   29 1
    49   25   29 1
    50   29   54 1
    51   39   53 1
    52   47   48 1
    53   50   53 1
    54   51   54 1
    55   53   55 1
@<TRIPOS>SUBSTRUCTURE
     1 TFK         1 TEMP              0 ****  ****    0 ROOT
