@<TRIPOS>MOLECULE
molecule
   37    39     1     0     0
SMALL
bcc


@<TRIPOS>ATOM
      1 C2           0.0000     0.0000     0.0000 ca         1 TFL       0.246600
      2 C3           1.3950     0.0000     0.0000 ca         1 TFL      -0.187500
      3 C4           2.0920     0.0000     1.2080 ca         1 TFL      -0.042000
      4 C5           1.3970     0.0010     2.4190 ca         1 TFL      -0.293900
      5 C6           0.0010     0.0010     2.4160 ca         1 TFL      -0.042000
      6 C7          -0.6970    -0.0000     1.2080 ca         1 TFL      -0.187500
      7 C8           2.1180     0.0000     3.6650 cc         1 TFL       0.272800
      8 N1           2.5160     1.0470     4.3540 na         1 TFL      -0.022200
      9 C9           3.1900     0.7570     5.5180 ca         1 TFL      -0.086200
     10 S1           2.5630    -1.4580     4.4380 ss         1 TFL       0.221900
     11 C10          3.3170    -0.6090     5.7390 ca         1 TFL      -0.088100
     12 C11          3.9730    -1.1020     6.8750 ca         1 TFL      -0.088000
     13 C12          4.4980    -0.1730     7.7810 ca         1 TFL       0.151100
     14 C13          4.3720     1.1980     7.5610 ca         1 TFL      -0.099000
     15 C14          3.7160     1.6860     6.4270 ca         1 TFL      -0.085000
     16 O3           5.1430    -0.6190     8.8960 oh         1 TFL      -0.500100
     17 N2          -0.7050    -0.0010    -1.2210 nh         1 TFL      -0.726000
     18 C15         -0.1350    -0.6270    -2.3980 c3         1 TFL       0.221600
     19 C16         -2.0150     0.6120    -1.3120 c3         1 TFL       0.221600
     20 C17          2.2630     2.4020     3.9120 c3         1 TFL      -0.009400
     21 H3           1.9370    -0.0000    -0.9380 ha         1 TFL       0.160000
     22 H4           3.1760     0.0000     1.2070 ha         1 TFL       0.141500
     23 H6          -0.5420     0.0010     3.3540 ha         1 TFL       0.141500
     24 H7          -1.7800    -0.0000     1.2090 ha         1 TFL       0.160000
     25 H11          4.0710    -2.1670     7.0460 ha         1 TFL       0.179000
     26 H13          4.7880     1.8950     8.2790 ha         1 TFL       0.178000
     27 H14          3.6170     2.7510     6.2550 ha         1 TFL       0.166000
     28 HA           4.5170    -0.7570     9.5870 ho         1 TFL       0.444000
     29 H151        -0.9280    -0.8870    -3.0880 h1         1 TFL       0.046033
     30 H152         0.5500     0.0630    -2.8770 h1         1 TFL       0.046033
     31 H153         0.3990    -1.5230    -2.1070 h1         1 TFL       0.046033
     32 H161        -2.2250     0.8650    -2.3440 h1         1 TFL       0.046033
     33 H162        -2.7650    -0.0820    -0.9510 h1         1 TFL       0.046033
     34 H163        -2.0360     1.5110    -0.7080 h1         1 TFL       0.046033
     35 H171         1.7790     2.3810     2.9430 h1         1 TFL       0.090033
     36 H172         3.2010     2.9380     3.8350 h1         1 TFL       0.090033
     37 H173         1.6190     2.9010     4.6260 h1         1 TFL       0.090033
@<TRIPOS>BOND
     1     1     2 ar
     2     1     6 ar
     3     1    17 1
     4     2     3 ar
     5     2    21 1
     6     3     4 ar
     7     3    22 1
     8     4     5 ar
     9     4     7 1
    10     5     6 ar
    11     5    23 1
    12     6    24 1
    13     7     8 2
    14     7    10 1
    15     8     9 1
    16     8    20 1
    17     9    11 ar
    18     9    15 ar
    19    10    11 1
    20    11    12 ar
    21    12    13 ar
    22    12    25 1
    23    13    14 ar
    24    13    16 1
    25    14    15 ar
    26    14    26 1
    27    15    27 1
    28    16    28 1
    29    17    18 1
    30    17    19 1
    31    18    29 1
    32    18    30 1
    33    18    31 1
    34    19    32 1
    35    19    33 1
    36    19    34 1
    37    20    35 1
    38    20    36 1
    39    20    37 1
@<TRIPOS>SUBSTRUCTURE
     1 TFL         1 TEMP              0 ****  ****    0 ROOT
