@<TRIPOS>MOLECULE
TFM
   28    28     1     0     0
SMALL
bcc


@<TRIPOS>ATOM
      1 N1           0.0000     0.0000     0.0000 nz         1 TFM       0.160400
      2 C            1.3740     0.0000     0.0000 c2         1 TFM       0.149100
      3 S            2.2550     0.0000     1.5250 ss         1 TFM      -0.211300
      4 N2           2.0290    -0.0010    -1.1380 ne         1 TFM      -0.306100
      5 C1           1.3500    -0.1310    -2.3200 ca         1 TFM      -0.007600
      6 C2           1.4830     0.8400    -3.3140 ca         1 TFM      -0.106000
      7 C3           0.7960     0.7040    -4.5030 ca         1 TFM      -0.011000
      8 C4          -0.0220    -0.3920    -4.7100 ca         1 TFM      -0.167300
      9 C5          -0.1580    -1.3570    -3.7290 ca         1 TFM      -0.011000
     10 C6           0.5280    -1.2360    -2.5380 ca         1 TFM      -0.106000
     11 C1'          3.9540     0.0000     0.9060 c3         1 TFM       0.118700
     12 C2'          4.9280     0.0000     2.0870 c3         1 TFM       0.021900
     13 CM          -0.7700    -0.5340    -6.0110 c3         1 TFM       0.640200
     14 F1          -1.5250    -1.7110    -5.9880 f          1 TFM      -0.193633
     15 F2          -1.6200     0.5620    -6.1830 f          1 TFM      -0.193633
     16 F3           0.1430    -0.5860    -7.0700 f          1 TFM      -0.193633
     17 HN11        -0.3340     0.5580    -0.7610 hn         1 TFM       0.227133
     18 HN12        -0.3340     0.3800     0.8640 hn         1 TFM       0.227133
     19 H21          2.1230     1.6990    -3.1530 ha         1 TFM       0.125000
     20 H31          0.8970     1.4560    -5.2750 ha         1 TFM       0.142500
     21 H51         -0.7980    -2.2140    -3.8990 ha         1 TFM       0.142500
     22 H61          0.4210    -1.9930    -1.7700 ha         1 TFM       0.125000
     23 H1'1         4.1190    -0.8840     0.3030 h1         1 TFM       0.057200
     24 H1'2         4.1190     0.8850     0.3030 h1         1 TFM       0.057200
     25 H2'1         5.9450    -0.0000     1.7160 hc         1 TFM       0.028367
     26 H2'2         4.7640     0.8850     2.6900 hc         1 TFM       0.028367
     27 H2'3         4.7630    -0.8840     2.6900 hc         1 TFM       0.028367
     28 H13         -0.3340    -0.9350    -0.1250 hn         1 TFM       0.227133
@<TRIPOS>BOND
     1     1     2 1   
     2     1    17 1   
     3     1    18 1   
     4     1    28 1   
     5     2     3 1   
     6     2     4 2   
     7     3    11 1   
     8     4     5 1   
     9     5     6 ar  
    10     5    10 ar  
    11     6     7 ar  
    12     6    19 1   
    13     7     8 ar  
    14     7    20 1   
    15     8     9 ar  
    16     8    13 1   
    17     9    10 ar  
    18     9    21 1   
    19    10    22 1   
    20    11    12 1   
    21    11    23 1   
    22    11    24 1   
    23    12    25 1   
    24    12    26 1   
    25    12    27 1   
    26    13    14 1   
    27    13    15 1   
    28    13    16 1   
@<TRIPOS>SUBSTRUCTURE
     1 TFM         1 TEMP              0 ****  ****    0 ROOT
