@<TRIPOS>MOLECULE
molecule
   52    55     1     0     0
SMALL
bcc


@<TRIPOS>ATOM
      1 C1           0.0000     0.0000     0.0000 ca         1 TFP      -0.151300
      2 C2           1.3820     0.0000     0.0000 ca         1 TFP      -0.110000
      3 C3           2.0740     0.0000     1.1960 ca         1 TFP      -0.088000
      4 C4           1.3870     0.0020     2.4060 ca         1 TFP       0.038900
      5 C5          -0.0040    -0.0030     2.4040 ca         1 TFP       0.080700
      6 C6          -0.6900     0.0010     1.1970 ca         1 TFP      -0.133000
      7 S            2.3090     0.0020     3.9020 ss         1 TFP      -0.233800
      8 C7           1.1160    -0.5760     5.0550 ca         1 TFP       0.008900
      9 C8           1.5550    -1.1050     6.2660 ca         1 TFP      -0.075000
     10 C9           0.6460    -1.5690     7.1970 ca         1 TFP      -0.152000
     11 C10         -0.7090    -1.5110     6.9290 ca         1 TFP      -0.093000
     12 C11         -1.1540    -0.9880     5.7300 ca         1 TFP      -0.178000
     13 C12         -0.2460    -0.5180     4.7880 ca         1 TFP       0.086700
     14 N1          -0.7350     0.0030     3.5910 na         1 TFP      -0.198100
     15 C13         -2.0810     0.5790     3.5790 c3         1 TFP       0.052300
     16 C14         -3.0990    -0.5110     3.2360 c3         1 TFP      -0.121400
     17 C15         -4.5050     0.0900     3.2250 c3         1 TFP       0.134800
     18 N2          -5.4820    -0.9570     2.8950 n3         1 TFP      -0.671600
     19 C16         -6.8040    -0.3180     2.9010 c3         1 TFP       0.133300
     20 C17         -7.8880    -1.3740     2.6850 c3         1 TFP       0.136300
     21 N3          -7.8730    -2.3290     3.7990 n3         1 TFP      -0.678600
     22 C18         -6.5520    -2.9680     3.7950 c3         1 TFP       0.136300
     23 C19         -5.4680    -1.9120     4.0090 c3         1 TFP       0.133300
     24 C20         -8.8500    -3.3760     3.4710 c3         1 TFP       0.125100
     25 C21         -0.7540    -0.0000    -1.3050 c3         1 TFP       0.675200
     26 F1           0.1560    -0.0010    -2.3680 f          1 TFP      -0.222633
     27 F2          -1.5580    -1.1420    -1.3790 f          1 TFP      -0.222633
     28 F3          -1.5570     1.1420    -1.3800 f          1 TFP      -0.222633
     29 H2           1.9230    -0.0010    -0.9380 ha         1 TFP       0.153000
     30 H3           3.1580    -0.0000     1.1910 ha         1 TFP       0.149000
     31 H6          -1.7740     0.0010     1.1940 ha         1 TFP       0.156000
     32 H8           2.6160    -1.1520     6.4790 ha         1 TFP       0.142000
     33 H9           0.9950    -1.9790     8.1370 ha         1 TFP       0.136000
     34 H10         -1.4220    -1.8750     7.6590 ha         1 TFP       0.135000
     35 H11         -2.2160    -0.9440     5.5230 ha         1 TFP       0.140000
     36 H131        -2.1310     1.3650     2.8360 h1         1 TFP       0.061200
     37 H132        -2.3070     0.9900     4.5550 h1         1 TFP       0.061200
     38 H141        -2.8740    -0.9210     2.2590 hc         1 TFP       0.063700
     39 H142        -3.0490    -1.2980     3.9790 hc         1 TFP       0.063700
     40 H151        -4.7310     0.5000     4.2020 h1         1 TFP       0.038700
     41 H152        -4.5560     0.8770     2.4820 h1         1 TFP       0.038700
     42 H161        -6.8520     0.4130     2.1030 h1         1 TFP       0.045450
     43 H162        -6.9630     0.1710     3.8540 h1         1 TFP       0.045450
     44 H171        -7.6970    -1.9010     1.7580 h1         1 TFP       0.045700
     45 H172        -8.8560    -0.8910     2.6390 h1         1 TFP       0.045700
     46 H181        -6.3930    -3.4580     2.8420 h1         1 TFP       0.045700
     47 H182        -6.5040    -3.6990     4.5940 h1         1 TFP       0.045700
     48 H191        -4.5000    -2.3950     4.0560 h1         1 TFP       0.045450
     49 H192        -5.6590    -1.3850     4.9360 h1         1 TFP       0.045450
     50 H201        -9.8400    -2.9410     3.4100 h1         1 TFP       0.036033
     51 H202        -8.5930    -3.8250     2.5190 h1         1 TFP       0.036033
     52 H203        -8.8370    -4.1360     4.2440 h1         1 TFP       0.036033
@<TRIPOS>BOND
     1     1     2 ar
     2     1     6 ar
     3     1    25 1
     4     2     3 ar
     5     2    29 1
     6     3     4 ar
     7     3    30 1
     8     4     5 ar
     9     4     7 1
    10     5     6 ar
    11     5    14 1
    12     6    31 1
    13     7     8 1
    14     8     9 ar
    15     8    13 ar
    16     9    10 ar
    17     9    32 1
    18    10    11 ar
    19    10    33 1
    20    11    12 ar
    21    11    34 1
    22    12    13 ar
    23    12    35 1
    24    13    14 1
    25    14    15 1
    26    15    16 1
    27    15    36 1
    28    15    37 1
    29    16    17 1
    30    16    38 1
    31    16    39 1
    32    17    18 1
    33    17    40 1
    34    17    41 1
    35    18    19 1
    36    18    23 1
    37    19    20 1
    38    19    42 1
    39    19    43 1
    40    20    21 1
    41    20    44 1
    42    20    45 1
    43    21    22 1
    44    21    24 1
    45    22    23 1
    46    22    46 1
    47    22    47 1
    48    23    48 1
    49    23    49 1
    50    24    50 1
    51    24    51 1
    52    24    52 1
    53    25    26 1
    54    25    27 1
    55    25    28 1
@<TRIPOS>SUBSTRUCTURE
     1 TFP         1 TEMP              0 ****  ****    0 ROOT
