@<TRIPOS>MOLECULE
TFS
    8     6     1     0     0
SMALL
bcc


@<TRIPOS>ATOM
      1 FAC        -1.5390   -1.0650   -0.7410 f         1 TFS     -0.222000
      2 CAD        -1.0020   -0.0140   -0.0390 c2        1 TFS     -0.126000
      3 FAG        -1.5760    1.0890   -0.6240 f         1 TFS     -0.222000
      4 FAA        -1.6280   -0.0910    1.1820 f         1 TFS     -0.222000
      5 SAE         1.1320    0.0180    0.0430 s4        1 TFS      2.860000
      6 OAH         1.4440    0.0980   -1.3000 o         1 TFS     -1.023000
      7 OAF         1.3470    1.1560    0.7960 o         1 TFS     -1.023000
      8 OAB         1.3870   -1.1900    0.6650 o         1 TFS     -1.023000
@<TRIPOS>BOND
     1    1    2 1   
     2    2    3 1   
     3    2    4 1   
     4    5    6 1   
     5    5    7 1   
     6    5    8 1   
@<TRIPOS>SUBSTRUCTURE
     1 TFS         1 TEMP              0 ****  ****    0 ROOT
