@<TRIPOS>MOLECULE
molecule
    8     7     1     0     0
SMALL
bcc


@<TRIPOS>ATOM
      1 FAC         -1.3730    -1.1420    -0.7070 f          1 TFS      -0.244300
      2 CAD         -0.9610    -0.0000    -0.0120 c3         1 TFS       0.486700
      3 FAG         -1.3730     1.1420    -0.7060 f          1 TFS      -0.244300
      4 FAA         -1.5300    -0.0000     1.2660 f          1 TFS      -0.244300
      5 SAE          0.8480     0.0000     0.1310 s6         1 TFS       1.203800
      6 OAH          1.3430     0.0000    -1.3080 o          1 TFS      -0.652200
      7 OAF          1.3060     1.2370     0.6590 o          1 TFS      -0.652200
      8 OAB          1.3060    -1.2370     0.6590 o          1 TFS      -0.652200
@<TRIPOS>BOND
     1     2     1 1
     2     3     2 1
     3     4     2 1
     4     2     5 1
     5     7     5 1
     6     5     8 1
     7     5     6 1
@<TRIPOS>SUBSTRUCTURE
     1 TFS         1 TEMP              0 ****  ****    0 ROOT
