@<TRIPOS>MOLECULE
molecule
   26    26     1     0     0
SMALL
bcc


@<TRIPOS>ATOM
      1 C1           0.0000     0.0000     0.0000 c3         1 TFU       0.285200
      2 C2           1.5310     0.0000     0.0000 c3         1 TFU       0.124100
      3 O2           2.0080     1.1680    -0.6710 oh         1 TFU      -0.598800
      4 C3           2.0340     0.0000     1.4480 c3         1 TFU       0.131100
      5 O3           3.4620    -0.0730     1.4580 oh         1 TFU      -0.588800
      6 C4           1.4530    -1.2140     2.1780 c3         1 TFU       0.103100
      7 O4           1.9290    -2.4130     1.5640 oh         1 TFU      -0.577800
      8 C5          -0.0750    -1.1680     2.0930 c3         1 TFU       0.136100
      9 C6          -0.6610    -2.4100     2.7690 c3         1 TFU      -0.083100
     10 O5          -0.4740    -1.1380     0.7220 os         1 TFU      -0.400600
     11 SE1         -0.6530    -0.0780    -1.8460 ss         1 TFU      -0.426200
     12 C7          -2.5910    -0.0660    -1.5580 c3         1 TFU       0.079000
     13 H1          -0.3590     0.9040     0.4770 h2         1 TFU       0.056700
     14 H2           1.8920    -0.8870    -0.5070 h1         1 TFU       0.087700
     15 HO2          2.3580     0.9260    -1.5130 ho         1 TFU       0.417000
     16 H3           1.7090     0.9080     1.9420 h1         1 TFU       0.044700
     17 HO3          3.8080     0.6230     1.9910 ho         1 TFU       0.404000
     18 H4           1.7570    -1.1890     3.2170 h1         1 TFU       0.040700
     19 HO4          2.5120    -2.8600     2.1550 ho         1 TFU       0.405000
     20 H5          -0.4350    -0.2760     2.5910 h1         1 TFU       0.036700
     21 H63         -0.2490    -2.5070     3.7660 hc         1 TFU       0.049700
     22 H62         -1.7380    -2.3120     2.8310 hc         1 TFU       0.049700
     23 H61         -0.4110    -3.2890     2.1880 hc         1 TFU       0.049700
     24 H72         -2.9470    -1.0840    -1.4510 h1         1 TFU       0.058033
     25 H7          -2.8190     0.4920    -0.6580 h1         1 TFU       0.058033
     26 H71         -3.0790     0.4000    -2.4050 h1         1 TFU       0.058033
@<TRIPOS>BOND
     1     9     8 1
     2     8    10 1
     3     8     6 1
     4    10     1 1
     5    12    11 1
     6     1    11 1
     7     1     2 1
     8     6     7 1
     9     6     4 1
    10     4     2 1
    11     4     5 1
    12     2     3 1
    13     1    13 1
    14     2    14 1
    15     3    15 1
    16     4    16 1
    17     5    17 1
    18     6    18 1
    19     7    19 1
    20     8    20 1
    21     9    21 1
    22     9    22 1
    23     9    23 1
    24    12    24 1
    25    12    25 1
    26    12    26 1
@<TRIPOS>SUBSTRUCTURE
     1 TFU         1 TEMP              0 ****  ****    0 ROOT
