@<TRIPOS>MOLECULE
TFV
   44    46     1     0     0
SMALL
bcc


@<TRIPOS>ATOM
      1 F3           0.0000     0.0000     0.0000 f          1 TFV      -0.209967
      2 C18          1.3990     0.0000     0.0000 c3         1 TFV       0.656200
      3 F1           1.8660     0.0000     1.3190 f          1 TFV      -0.209967
      4 F2           1.8650    -1.1410    -0.6600 f          1 TFV      -0.209967
      5 C15          1.9010     1.2310    -0.7100 ca         1 TFV      -0.411600
      6 C14          1.1630     2.3980    -0.6900 ca         1 TFV       0.521200
      7 N6           1.5920     3.4820    -1.3070 nb         1 TFV      -0.654000
      8 C16          3.1130     1.2060    -1.3870 ca         1 TFV       0.046000
      9 C17          3.5370     2.3570    -2.0250 ca         1 TFV      -0.323300
     10 C13          2.7400     3.4960    -1.9680 ca         1 TFV       0.546200
     11 N5           3.1530     4.6590    -2.6050 nu         1 TFV      -0.492900
     12 C11          4.4220     4.6810    -3.3380 c3         1 TFV       0.145800
     13 C10          4.6390     6.0710    -3.9410 c3         1 TFV       0.154800
     14 N4           5.9070     6.0930    -4.6740 nu         1 TFV      -0.497900
     15 C7           6.3200     7.2540    -5.3090 ca         1 TFV       0.551200
     16 N3           5.5730     8.3510    -5.2590 nb         1 TFV      -0.653000
     17 C8           7.5320     7.2880    -6.0060 ca         1 TFV      -0.369200
     18 Cl           8.5470     5.8820    -6.0940 cl         1 TFV       0.001600
     19 C9           7.9020     8.4680    -6.6250 ca         1 TFV       0.464600
     20 C12          9.1990     8.5530    -7.3880 c3         1 TFV      -0.049400
     21 N2           7.1060     9.5220    -6.5400 nb         1 TFV      -0.662000
     22 C6           5.9660     9.4620    -5.8670 cp         1 TFV       0.599000
     23 C5           5.1030    10.6680    -5.7960 cp         1 TFV       0.304300
     24 N1           3.9630    10.6210    -5.1210 nb         1 TFV      -0.533000
     25 C4           5.5020    11.8400    -6.4350 ca         1 TFV      -0.172300
     26 C3           4.6860    12.9570    -6.3610 ca         1 TFV      -0.084000
     27 C2           3.4990    12.8630    -5.6490 ca         1 TFV      -0.206300
     28 C1           3.1710    11.6710    -5.0310 ca         1 TFV       0.386200
     29 H1           0.2190     2.4240    -0.1590 h4         1 TFV      -0.010900
     30 H2           3.7120     0.3040    -1.4140 ha         1 TFV       0.117000
     31 H3           4.4770     2.3700    -2.5640 ha         1 TFV       0.127000
     32 H4           2.5850     5.4810    -2.5630 hn         1 TFV       0.308800
     33 H5           5.2350     4.4500    -2.6610 h1         1 TFV       0.019700
     34 H6           4.3930     3.9440    -4.1320 h1         1 TFV       0.019700
     35 H7           4.6680     6.8080    -3.1470 h1         1 TFV       0.036700
     36 H8           3.8260     6.3020    -4.6180 h1         1 TFV       0.036700
     37 H9           6.4750     5.2700    -4.7160 hn         1 TFV       0.303800
     38 H10         10.0260     8.3420    -6.7210 hc         1 TFV       0.022367
     39 H11          9.1920     7.8300    -8.1940 hc         1 TFV       0.022367
     40 H12          9.3120     9.5500    -7.7990 hc         1 TFV       0.022367
     41 H13          6.4360    11.8770    -6.9820 ha         1 TFV       0.134000
     42 H14          4.9670    13.8820    -6.8500 ha         1 TFV       0.110000
     43 H15          2.8400    13.7200    -5.5710 ha         1 TFV       0.112000
     44 H16          2.2460    11.5950    -4.4720 h4         1 TFV      -0.018900
@<TRIPOS>BOND
     1     1     2 1   
     2     2     3 1   
     3     2     4 1   
     4     2     5 1   
     5     5     6 ar  
     6     5     8 ar  
     7     6     7 ar  
     8     6    29 1   
     9     7    10 ar  
    10     8     9 ar  
    11     8    30 1   
    12     9    10 ar  
    13     9    31 1   
    14    10    11 1   
    15    11    12 1   
    16    11    32 1   
    17    12    13 1   
    18    12    33 1   
    19    12    34 1   
    20    13    14 1   
    21    13    35 1   
    22    13    36 1   
    23    14    15 1   
    24    14    37 1   
    25    15    16 ar  
    26    15    17 ar  
    27    16    22 ar  
    28    17    18 1   
    29    17    19 ar  
    30    19    20 1   
    31    19    21 ar  
    32    20    38 1   
    33    20    39 1   
    34    20    40 1   
    35    21    22 ar  
    36    22    23 1   
    37    23    24 ar  
    38    23    25 ar  
    39    24    28 ar  
    40    25    26 ar  
    41    25    41 1   
    42    26    27 ar  
    43    26    42 1   
    44    27    28 ar  
    45    27    43 1   
    46    28    44 1   
@<TRIPOS>SUBSTRUCTURE
     1 TFV         1 TEMP              0 ****  ****    0 ROOT
