@<TRIPOS>MOLECULE
molecule
   44    46     1     0     0
SMALL
bcc


@<TRIPOS>ATOM
      1 F3           0.0000     0.0000     0.0000 f          1 TFV      -0.225967
      2 C18          1.3990     0.0000     0.0000 c3         1 TFV       0.684200
      3 F1           1.8660     0.0000     1.3190 f          1 TFV      -0.225967
      4 F2           1.8650    -1.1410    -0.6600 f          1 TFV      -0.225967
      5 C15          1.9010     1.2310    -0.7100 ca         1 TFV      -0.376600
      6 C14          1.1630     2.3980    -0.6900 ca         1 TFV       0.522200
      7 N6           1.5920     3.4820    -1.3070 nb         1 TFV      -0.760000
      8 C16          3.1130     1.2060    -1.3870 ca         1 TFV      -0.004000
      9 C17          3.5370     2.3570    -2.0250 ca         1 TFV      -0.330300
     10 C13          2.7400     3.4960    -1.9680 ca         1 TFV       0.727200
     11 N5           3.1530     4.6590    -2.6050 nu         1 TFV      -0.907900
     12 C11          4.4220     4.6810    -3.3380 c3         1 TFV       0.216800
     13 C10          4.6390     6.0710    -3.9410 c3         1 TFV       0.224800
     14 N4           5.9070     6.0930    -4.6740 nu         1 TFV      -0.904900
     15 C7           6.3200     7.2540    -5.3090 ca         1 TFV       0.741200
     16 N3           5.5730     8.3510    -5.2590 nb         1 TFV      -0.761000
     17 C8           7.5320     7.2880    -6.0060 ca         1 TFV      -0.298200
     18 Cl           8.5470     5.8820    -6.0940 cl         1 TFV      -0.101400
     19 C9           7.9020     8.4680    -6.6250 ca         1 TFV       0.513600
     20 C12          9.1990     8.5530    -7.3880 c3         1 TFV      -0.145400
     21 N2           7.1060     9.5220    -6.5400 nb         1 TFV      -0.772000
     22 C6           5.9660     9.4620    -5.8670 cp         1 TFV       0.687000
     23 C5           5.1030    10.6680    -5.7960 cp         1 TFV       0.371300
     24 N1           3.9630    10.6210    -5.1210 nb         1 TFV      -0.650000
     25 C4           5.5020    11.8400    -6.4350 ca         1 TFV      -0.201300
     26 C3           4.6860    12.9570    -6.3610 ca         1 TFV      -0.107000
     27 C2           3.4990    12.8630    -5.6490 ca         1 TFV      -0.239300
     28 C1           3.1710    11.6710    -5.0310 ca         1 TFV       0.411200
     29 H1           0.2190     2.4240    -0.1590 h4         1 TFV       0.038100
     30 H2           3.7120     0.3040    -1.4140 ha         1 TFV       0.151000
     31 H3           4.4770     2.3700    -2.5640 ha         1 TFV       0.143000
     32 H4           2.5850     5.4810    -2.5630 hn         1 TFV       0.459800
     33 H5           5.2350     4.4500    -2.6610 h1         1 TFV       0.046700
     34 H6           4.3930     3.9440    -4.1320 h1         1 TFV       0.046700
     35 H7           4.6680     6.8080    -3.1470 h1         1 TFV       0.066700
     36 H8           3.8260     6.3020    -4.6180 h1         1 TFV       0.066700
     37 H9           6.4750     5.2700    -4.7160 hn         1 TFV       0.458800
     38 H10         10.0260     8.3420    -6.7210 hc         1 TFV       0.062700
     39 H11          9.1920     7.8300    -8.1940 hc         1 TFV       0.062700
     40 H12          9.3120     9.5500    -7.7990 hc         1 TFV       0.062700
     41 H13          6.4360    11.8770    -6.9820 ha         1 TFV       0.163000
     42 H14          4.9670    13.8820    -6.8500 ha         1 TFV       0.142000
     43 H15          2.8400    13.7200    -5.5710 ha         1 TFV       0.139000
     44 H16          2.2460    11.5950    -4.4720 h4         1 TFV       0.027100
@<TRIPOS>BOND
     1    28    27 ar
     2    28    24 ar
     3    27    26 ar
     4    24    23 ar
     5    26    25 ar
     6    23    25 ar
     7    23    22 1
     8    21    22 ar
     9    21    19 ar
    10    22    16 ar
    11    20    19 1
    12    19    17 ar
    13    16    15 ar
    14    17    15 ar
    15    17    18 1
    16    15    14 1
    17    14    13 1
    18    13    12 1
    19    12    11 1
    20     7     6 ar
    21     7    10 ar
    22    11    10 1
    23     6     5 ar
    24     4     2 1
    25    10     9 ar
    26     5     2 1
    27     5     8 ar
    28     9     8 ar
    29     2     3 1
    30     2     1 1
    31     6    29 1
    32     8    30 1
    33     9    31 1
    34    11    32 1
    35    12    33 1
    36    12    34 1
    37    13    35 1
    38    13    36 1
    39    14    37 1
    40    20    38 1
    41    20    39 1
    42    20    40 1
    43    25    41 1
    44    26    42 1
    45    27    43 1
    46    28    44 1
@<TRIPOS>SUBSTRUCTURE
     1 TFV         1 TEMP              0 ****  ****    0 ROOT
