@<TRIPOS>MOLECULE
molecule
   39    41     1     0     0
SMALL
bcc


@<TRIPOS>ATOM
      1 N1           0.0000     0.0000     0.0000 na         1 TFX      -0.012200
      2 S1           1.9020     0.0000     1.6490 ss         1 TFX       0.129900
      3 C2           3.7200    -0.0040    -3.4860 ca         1 TFX       0.257600
      4 N2           4.5160    -0.0050    -4.6300 nh         1 TFX      -0.698000
      5 C3           3.9770     0.9010    -2.4620 ca         1 TFX      -0.207500
      6 C4           3.1920     0.9050    -1.3310 ca         1 TFX      -0.030500
      7 C5           2.1360    -0.0010    -1.2120 ca         1 TFX      -0.281900
      8 C6           1.8790    -0.9090    -2.2430 ca         1 TFX      -0.030500
      9 C7           2.6650    -0.9040    -3.3740 ca         1 TFX      -0.207500
     10 C8           1.2910     0.0000     0.0000 cc         1 TFX       0.296800
     11 C9          -0.6300     0.0000     1.1880 ca         1 TFX      -0.094200
     12 C10          0.2550     0.0000     2.2730 ca         1 TFX      -0.053100
     13 C11         -0.2350     0.0010     3.5780 ca         1 TFX      -0.075000
     14 C12         -1.5930     0.0010     3.8050 ca         1 TFX      -0.032300
     15 C13         -2.4750     0.0010     2.7350 ca         1 TFX      -0.081000
     16 C14         -2.0160     0.0010     1.4530 ca         1 TFX      -0.092000
     17 C15          5.6230     0.9460    -4.7530 c3         1 TFX       0.215100
     18 C16          4.2450    -0.9570    -5.7100 c3         1 TFX       0.215100
     19 C17         -0.7540     0.0070    -1.2560 c3         1 TFX      -0.011400
     20 C18         -2.1200     0.0000     5.2170 c3         1 TFX      -0.058800
     21 H3           4.7960     1.6040    -2.5540 ha         1 TFX       0.158000
     22 H4           3.3930     1.6100    -0.5330 ha         1 TFX       0.139000
     23 H6           1.0590    -1.6110    -2.1550 ha         1 TFX       0.139000
     24 H7           2.4670    -1.6070    -4.1740 ha         1 TFX       0.158000
     25 H11          0.4540     0.0000     4.4150 ha         1 TFX       0.165000
     26 H13         -3.5430     0.0010     2.9220 ha         1 TFX       0.167000
     27 H14         -2.7210     0.0010     0.6300 ha         1 TFX       0.154000
     28 H15          6.3270     0.7880    -3.9450 h1         1 TFX       0.051533
     29 H15A         5.2380     1.9580    -4.7030 h1         1 TFX       0.051533
     30 H15B         6.1240     0.7970    -5.7020 h1         1 TFX       0.051533
     31 H16          3.2440    -0.7960    -6.0910 h1         1 TFX       0.051533
     32 H16A         4.9630    -0.8110    -6.5080 h1         1 TFX       0.051533
     33 H16B         4.3280    -1.9680    -5.3290 h1         1 TFX       0.051533
     34 H17         -0.9630    -1.0130    -1.5570 h1         1 TFX       0.088700
     35 H17A        -0.1710     0.4980    -2.0250 h1         1 TFX       0.088700
     36 H17B        -1.6870     0.5390    -1.1140 h1         1 TFX       0.088700
     37 H18         -1.7670    -0.8840     5.7340 hc         1 TFX       0.065367
     38 H18A        -1.7690     0.8850     5.7340 hc         1 TFX       0.065367
     39 H18B        -3.2030    -0.0010     5.1980 hc         1 TFX       0.065367
@<TRIPOS>BOND
     1     1    10 2
     2     1    11 1
     3     1    19 1
     4     2    10 1
     5     2    12 1
     6     3     4 1
     7     3     5 ar
     8     3     9 ar
     9     4    17 1
    10     4    18 1
    11     5     6 ar
    12     6     7 ar
    13     7     8 ar
    14     7    10 1
    15     8     9 ar
    16    11    12 ar
    17    11    16 ar
    18    12    13 ar
    19    13    14 ar
    20    14    15 ar
    21    14    20 1
    22    15    16 ar
    23     5    21 1
    24     6    22 1
    25     8    23 1
    26     9    24 1
    27    13    25 1
    28    15    26 1
    29    16    27 1
    30    17    28 1
    31    17    29 1
    32    17    30 1
    33    18    31 1
    34    18    32 1
    35    18    33 1
    36    19    34 1
    37    19    35 1
    38    19    36 1
    39    20    37 1
    40    20    38 1
    41    20    39 1
@<TRIPOS>SUBSTRUCTURE
     1 TFX         1 TEMP              0 ****  ****    0 ROOT
