@<TRIPOS>MOLECULE
molecule
   85    88     1     0     0
SMALL
bcc


@<TRIPOS>ATOM
      1 O31          0.0000     0.0000     0.0000 oh         1 TFY      -0.590800
      2 C27          1.4290     0.0000     0.0000 c3         1 TFY       0.189300
      3 C26          1.9460     0.0000     1.4430 c3         1 TFY      -0.066700
      4 C30          1.3980     1.2240     2.1780 c3         1 TFY      -0.098400
      5 C32          1.9670     2.4970     1.5450 c3         1 TFY       0.053300
      6 N33          1.4420     3.6690     2.2500 na         1 TFY      -0.015400
      7 C37          2.1680     4.6520     2.8150 cc         1 TFY       0.338400
      8 N36          1.3130     5.4990     3.3340 nc         1 TFY      -0.384000
      9 N35          0.1240     5.0590     3.1010 nc         1 TFY      -0.038000
     10 N34          0.1990     3.9560     2.4410 nd         1 TFY      -0.231800
     11 C25          1.4850    -1.2710     2.1580 c3         1 TFY       0.158100
     12 O29          1.8440    -1.1950     3.5390 oh         1 TFY      -0.612800
     13 C24          2.1540    -2.4950     1.5240 c3         1 TFY      -0.056200
     14 C28          1.9390    -1.2490    -0.6900 ce         1 TFY      -0.097200
     15 C39          2.4850    -1.2040    -1.9060 c2         1 TFY      -0.207000
     16 C23          1.8040    -2.5220     0.0500 ce         1 TFY      -0.088200
     17 C11          1.3870    -3.6510    -0.5580 cf         1 TFY      -0.110000
     18 C10          1.0580    -3.6380    -1.9850 cf         1 TFY      -0.168000
     19 C4           0.6460    -4.7540    -2.5850 c2         1 TFY      -0.085400
     20 C3           0.4990    -6.0730    -1.8410 c3         1 TFY      -0.045200
     21 C2          -0.8720    -6.6930    -2.1040 c3         1 TFY      -0.078400
     22 C5           0.2890    -4.7990    -4.0400 c3         1 TFY      -0.037500
     23 C8           0.1810    -3.4530    -4.7610 c3         1 TFY      -0.078400
     24 C9          -0.7590    -3.7780    -5.9560 c3         1 TFY      -0.081400
     25 C7          -1.5940    -5.0140    -5.5310 c3         1 TFY      -0.054700
     26 C6          -1.1860    -5.2900    -4.0930 c3         1 TFY      -0.059000
     27 C13         -2.0350    -4.4300    -3.1560 c3         1 TFY      -0.094100
     28 C1          -1.2080    -6.7160    -3.6040 c3         1 TFY      -0.066400
     29 C14         -3.0880    -4.6990    -5.6080 c3         1 TFY      -0.071700
     30 C16         -3.8920    -5.9170    -5.1520 c3         1 TFY      -0.096100
     31 C15         -3.4630    -4.3530    -7.0510 c3         1 TFY      -0.082400
     32 C17         -4.9290    -3.9160    -7.1070 c3         1 TFY      -0.082400
     33 C18         -5.3030    -3.5710    -8.5500 c3         1 TFY      -0.066400
     34 C19         -6.7690    -3.1340    -8.6060 c3         1 TFY       0.146800
     35 O22         -7.6000    -4.1990    -8.1400 oh         1 TFY      -0.603800
     36 C21         -6.9680    -1.9040    -7.7180 c3         1 TFY      -0.120100
     37 C20         -7.1430    -2.7890   -10.0480 c3         1 TFY      -0.120100
     38 H1          -0.3140     0.6840    -0.5680 ho         1 TFY       0.406000
     39 H2           1.7980     0.8770    -0.5180 h1         1 TFY       0.033700
     40 H3           3.0280     0.0340     1.4350 hc         1 TFY       0.067700
     41 H4           0.3170     1.2360     2.1050 hc         1 TFY       0.081200
     42 H5           1.6890     1.1790     3.2210 hc         1 TFY       0.081200
     43 H6           3.0470     2.4850     1.6180 h1         1 TFY       0.066200
     44 H7           1.6750     2.5420     0.5020 h1         1 TFY       0.066200
     45 H8           3.2480     4.7280     2.8360 h5         1 TFY       0.077100
     46 H9           0.4090    -1.3640     2.0660 h1         1 TFY       0.060700
     47 H10          1.2140    -1.6720     4.0540 ho         1 TFY       0.408000
     48 H11          1.7890    -3.3960     2.0010 hc         1 TFY       0.057700
     49 H12          3.2290    -2.4230     1.6410 hc         1 TFY       0.057700
     50 H13          2.8410    -2.1130    -2.3740 ha         1 TFY       0.123000
     51 H14          2.5710    -0.2570    -2.4250 ha         1 TFY       0.123000
     52 H15          1.2970    -4.5690     0.0100 ha         1 TFY       0.135000
     53 H16          1.1480    -2.7190    -2.5520 ha         1 TFY       0.145000
     54 H17          1.2690    -6.7580    -2.1760 hc         1 TFY       0.048700
     55 H18          0.6110    -5.8960    -0.7780 hc         1 TFY       0.048700
     56 H19         -1.6250    -6.1150    -1.5830 hc         1 TFY       0.044200
     57 H20         -0.8760    -7.7090    -1.7270 hc         1 TFY       0.044200
     58 H21          0.9390    -5.4770    -4.5800 hc         1 TFY       0.067700
     59 H22         -0.2670    -2.7080    -4.1140 hc         1 TFY       0.046700
     60 H23          1.1520    -3.1310    -5.1160 hc         1 TFY       0.046700
     61 H24         -0.1720    -4.0110    -6.8360 hc         1 TFY       0.044200
     62 H25         -1.4140    -2.9370    -6.1510 hc         1 TFY       0.044200
     63 H26         -1.3500    -5.8630    -6.1590 hc         1 TFY       0.054700
     64 H27         -1.4370    -4.1200    -2.3080 hc         1 TFY       0.041367
     65 H28         -2.8840    -5.0060    -2.8070 hc         1 TFY       0.041367
     66 H29         -2.3870    -3.5550    -3.6880 hc         1 TFY       0.041367
     67 H30         -0.4670    -7.2990    -4.1380 hc         1 TFY       0.046200
     68 H31         -2.1940    -7.1400    -3.7530 hc         1 TFY       0.046200
     69 H32         -3.3130    -3.8570    -4.9650 hc         1 TFY       0.060700
     70 H33         -4.1750    -5.7950    -4.1130 hc         1 TFY       0.037367
     71 H34         -3.2870    -6.8100    -5.2580 hc         1 TFY       0.037367
     72 H35         -4.7830    -6.0110    -5.7610 hc         1 TFY       0.037367
     73 H36         -2.8320    -3.5460    -7.4050 hc         1 TFY       0.040700
     74 H37         -3.3210    -5.2230    -7.6800 hc         1 TFY       0.040700
     75 H38         -5.5590    -4.7230    -6.7540 hc         1 TFY       0.052200
     76 H39         -5.0700    -3.0450    -6.4790 hc         1 TFY       0.052200
     77 H40         -5.1610    -4.4420    -9.1780 hc         1 TFY       0.047200
     78 H41         -4.6720    -2.7640    -8.9030 hc         1 TFY       0.047200
     79 H42         -8.4740    -4.0860    -8.4770 ho         1 TFY       0.401000
     80 H43         -6.1360    -1.2240    -7.8510 hc         1 TFY       0.041867
     81 H44         -7.0210    -2.2120    -6.6800 hc         1 TFY       0.041867
     82 H45         -7.8900    -1.4050    -7.9930 hc         1 TFY       0.041867
     83 H46         -7.1220    -3.6880   -10.6520 hc         1 TFY       0.041867
     84 H47         -8.1390    -2.3620   -10.0710 hc         1 TFY       0.041867
     85 H48         -6.4340    -2.0720   -10.4440 hc         1 TFY       0.041867
@<TRIPOS>BOND
     1     1     2 1
     2    24    23 1
     3    24    25 1
     4    23    22 1
     5     2    14 1
     6     2     3 1
     7     9    10 2
     8     9     8 1
     9    10     6 1
    10    31    29 1
    11    31    32 1
    12    15    14 2
    13    30    29 1
    14    25    29 1
    15    25    26 1
    16    14    16 1
    17    35    34 1
    18    22    26 1
    19    22    19 1
    20    12    11 1
    21    33    32 1
    22    33    34 1
    23    18    19 2
    24    18    17 1
    25     3    11 1
    26     3     4 1
    27     8     7 2
    28    37    34 1
    29     6     5 1
    30     6     7 1
    31    34    36 1
    32     5     4 1
    33    26    27 1
    34    26    28 1
    35    19    20 1
    36    16    17 2
    37    16    13 1
    38    11    13 1
    39    28    21 1
    40    20    21 1
    41     1    38 1
    42     2    39 1
    43     3    40 1
    44     4    41 1
    45     4    42 1
    46     5    43 1
    47     5    44 1
    48     7    45 1
    49    11    46 1
    50    12    47 1
    51    13    48 1
    52    13    49 1
    53    15    50 1
    54    15    51 1
    55    17    52 1
    56    18    53 1
    57    20    54 1
    58    20    55 1
    59    21    56 1
    60    21    57 1
    61    22    58 1
    62    23    59 1
    63    23    60 1
    64    24    61 1
    65    24    62 1
    66    25    63 1
    67    27    64 1
    68    27    65 1
    69    27    66 1
    70    28    67 1
    71    28    68 1
    72    29    69 1
    73    30    70 1
    74    30    71 1
    75    30    72 1
    76    31    73 1
    77    31    74 1
    78    32    75 1
    79    32    76 1
    80    33    77 1
    81    33    78 1
    82    35    79 1
    83    36    80 1
    84    36    81 1
    85    36    82 1
    86    37    83 1
    87    37    84 1
    88    37    85 1
@<TRIPOS>SUBSTRUCTURE
     1 TFY         1 TEMP              0 ****  ****    0 ROOT
