@<TRIPOS>MOLECULE
TFY
   85    88     1     0     0
SMALL
bcc


@<TRIPOS>ATOM
      1 O31         0.2650    0.5800    0.2490 oh        1 TFY     -0.585800
      2 C27         1.6640    0.3490    0.2180 c3        1 TFY      0.182300
      3 C26         2.2660    0.2970    1.6320 c3        1 TFY     -0.085700
      4 C30         1.8820    1.5290    2.4370 c3        1 TFY     -0.101400
      5 C32         2.8320    2.6840    2.1200 c3        1 TFY      0.051300
      6 N33         2.5780    3.8820    2.8960 na        1 TFY     -0.079400
      7 C37         3.0480    4.1510    4.1960 cc        1 TFY      0.375400
      8 N36         2.5180    5.3540    4.5410 nd        1 TFY     -0.379000
      9 N35         1.7760    5.7540    3.5040 nd        1 TFY     -0.054000
     10 N34         1.7840    4.9180    2.5360 nc        1 TFY     -0.186800
     11 C25         1.8090   -0.9770    2.3510 c3        1 TFY      0.146100
     12 O29         2.4600   -0.9920    3.6170 oh        1 TFY     -0.601800
     13 C24         2.1860   -2.2270    1.5560 c3        1 TFY     -0.075200
     14 C28         1.9990   -0.9060   -0.5470 ce        1 TFY     -0.122200
     15 C39         2.5380   -0.8470   -1.7700 c2        1 TFY     -0.176000
     16 C23         1.7090   -2.1610    0.1450 ce        1 TFY     -0.100200
     17 C11         1.0840   -3.2160   -0.4170 cf        1 TFY     -0.097000
     18 C10         0.5680   -3.2460   -1.7660 cf        1 TFY     -0.166000
     19 C4          0.2580   -4.3520   -2.4650 c2        1 TFY     -0.062400
     20 C3          0.4810   -5.7540   -2.0000 c3        1 TFY     -0.047200
     21 C2         -0.6970   -6.6790   -2.2570 c3        1 TFY     -0.073400
     22 C5         -0.2730   -4.3120   -3.8530 c3        1 TFY     -0.041500
     23 C8         -0.5650   -2.9880   -4.5440 c3        1 TFY     -0.074400
     24 C9         -1.5480   -3.3480   -5.6590 c3        1 TFY     -0.079400
     25 C7         -2.0110   -4.8020   -5.4300 c3        1 TFY     -0.053700
     26 C6         -1.6120   -5.0950   -3.9650 c3        1 TFY     -0.039000
     27 C13        -2.6490   -4.5430   -3.0020 c3        1 TFY     -0.083100
     28 C1         -1.2990   -6.5490   -3.6460 c3        1 TFY     -0.068400
     29 C14        -3.4800   -4.9960   -5.7920 c3        1 TFY     -0.054700
     30 C16        -3.9390   -6.4200   -5.5360 c3        1 TFY     -0.092100
     31 C15        -3.7120   -4.6470   -7.2610 c3        1 TFY     -0.079400
     32 C17        -5.1580   -4.2900   -7.5370 c3        1 TFY     -0.079400
     33 C18        -5.3580   -3.9340   -8.9940 c3        1 TFY     -0.064400
     34 C19        -6.8310   -3.7370   -9.3640 c3        1 TFY      0.147800
     35 O22        -7.4680   -4.9970   -9.1400 oh        1 TFY     -0.598800
     36 C21        -7.4900   -2.6620   -8.5080 c3        1 TFY     -0.123100
     37 C20        -6.9410   -3.3630  -10.8400 c3        1 TFY     -0.123100
     38 H1         -0.1590   -0.2320    0.5540 ho        1 TFY      0.405000
     39 H2          2.0670    1.2590   -0.3160 h1        1 TFY      0.077700
     40 H3          3.3860    0.2470    1.5290 hc        1 TFY      0.069700
     41 H4          0.8250    1.8200    2.1940 hc        1 TFY      0.077200
     42 H5          1.9310    1.2850    3.5310 hc        1 TFY      0.077200
     43 H6          2.7550    2.9410    1.0250 h1        1 TFY      0.072200
     44 H7          3.8930    2.3710    2.3420 h1        1 TFY      0.072200
     45 H8          3.7110    3.5020    4.7730 h5        1 TFY      0.084100
     46 H9          0.6940   -0.9410    2.5090 h1        1 TFY      0.039700
     47 H10         2.1890   -1.8050    4.0590 ho        1 TFY      0.405000
     48 H11         3.3060   -2.3290    1.5580 hc        1 TFY      0.057700
     49 H12         1.7680   -3.1280    2.0770 hc        1 TFY      0.057700
     50 H13         2.7970   -1.7500   -2.3380 ha        1 TFY      0.122500
     51 H14         2.7510    0.1060   -2.2710 ha        1 TFY      0.122500
     52 H15         0.9200   -4.1230    0.1930 ha        1 TFY      0.124000
     53 H16         0.4220   -2.2530   -2.2330 ha        1 TFY      0.136000
     54 H17         1.3830   -6.1500   -2.5440 hc        1 TFY      0.047200
     55 H18         0.7210   -5.7830   -0.9050 hc        1 TFY      0.047200
     56 H19        -0.3580   -7.7380   -2.1060 hc        1 TFY      0.041700
     57 H20        -1.4950   -6.4750   -1.4940 hc        1 TFY      0.041700
     58 H21         0.4880   -4.8550   -4.4940 hc        1 TFY      0.056700
     59 H22         0.3660   -2.5260   -4.9500 hc        1 TFY      0.045200
     60 H23        -1.0310   -2.2580   -3.8350 hc        1 TFY      0.045200
     61 H24        -2.4210   -2.6500   -5.6420 hc        1 TFY      0.043700
     62 H25        -1.0560   -3.2570   -6.6590 hc        1 TFY      0.043700
     63 H26        -1.4050   -5.4820   -6.0900 hc        1 TFY      0.046700
     64 H27        -2.2290   -4.4730   -1.9690 hc        1 TFY      0.038033
     65 H28        -3.5480   -5.2040   -2.9750 hc        1 TFY      0.038033
     66 H29        -2.9670   -3.5190   -3.3180 hc        1 TFY      0.038033
     67 H30        -0.5830   -6.9520   -4.4090 hc        1 TFY      0.044700
     68 H31        -2.2300   -7.1700   -3.6990 hc        1 TFY      0.044700
     69 H32        -4.1000   -4.3000   -5.1580 hc        1 TFY      0.050700
     70 H33        -4.0820   -6.6000   -4.4440 hc        1 TFY      0.035367
     71 H34        -3.1880   -7.1510   -5.9230 hc        1 TFY      0.035367
     72 H35        -4.9130   -6.6120   -6.0470 hc        1 TFY      0.035367
     73 H36        -3.4090   -5.5180   -7.9000 hc        1 TFY      0.040200
     74 H37        -3.0660   -3.7800   -7.5600 hc        1 TFY      0.040200
     75 H38        -5.4590   -3.4230   -6.8910 hc        1 TFY      0.048700
     76 H39        -5.8300   -5.1500   -7.2750 hc        1 TFY      0.048700
     77 H40        -4.9430   -4.7550   -9.6370 hc        1 TFY      0.047200
     78 H41        -4.8060   -2.9900   -9.2390 hc        1 TFY      0.047200
     79 H42        -8.3960   -4.8830   -9.3720 ho        1 TFY      0.397000
     80 H43        -6.8770   -1.7310   -8.5250 hc        1 TFY      0.042533
     81 H44        -7.5840   -3.0180   -7.4540 hc        1 TFY      0.042533
     82 H45        -8.5100   -2.4290   -8.8960 hc        1 TFY      0.042533
     83 H46        -8.0120   -3.2490  -11.1310 hc        1 TFY      0.042533
     84 H47        -6.4100   -2.4010  -11.0300 hc        1 TFY      0.042533
     85 H48        -6.4840   -4.1630  -11.4700 hc        1 TFY      0.042533
@<TRIPOS>BOND
     1    1    2 1   
     2    1   38 1   
     3    2    3 1   
     4    2   14 1   
     5    2   39 1   
     6    3    4 1   
     7    3   11 1   
     8    3   40 1   
     9    4    5 1   
    10    4   41 1   
    11    4   42 1   
    12    5    6 1   
    13    5   43 1   
    14    5   44 1   
    15    6    7 1   
    16    6   10 1   
    17    7    8 2   
    18    7   45 1   
    19    8    9 1   
    20    9   10 2   
    21   11   12 1   
    22   11   13 1   
    23   11   46 1   
    24   12   47 1   
    25   13   16 1   
    26   13   48 1   
    27   13   49 1   
    28   14   15 2   
    29   14   16 1   
    30   15   50 1   
    31   15   51 1   
    32   16   17 2   
    33   17   18 1   
    34   17   52 1   
    35   18   19 2   
    36   18   53 1   
    37   19   20 1   
    38   19   22 1   
    39   20   21 1   
    40   20   54 1   
    41   20   55 1   
    42   21   28 1   
    43   21   56 1   
    44   21   57 1   
    45   22   23 1   
    46   22   26 1   
    47   22   58 1   
    48   23   24 1   
    49   23   59 1   
    50   23   60 1   
    51   24   25 1   
    52   24   61 1   
    53   24   62 1   
    54   25   26 1   
    55   25   29 1   
    56   25   63 1   
    57   26   27 1   
    58   26   28 1   
    59   27   64 1   
    60   27   65 1   
    61   27   66 1   
    62   28   67 1   
    63   28   68 1   
    64   29   30 1   
    65   29   31 1   
    66   29   69 1   
    67   30   70 1   
    68   30   71 1   
    69   30   72 1   
    70   31   32 1   
    71   31   73 1   
    72   31   74 1   
    73   32   33 1   
    74   32   75 1   
    75   32   76 1   
    76   33   34 1   
    77   33   77 1   
    78   33   78 1   
    79   34   35 1   
    80   34   36 1   
    81   34   37 1   
    82   35   79 1   
    83   36   80 1   
    84   36   81 1   
    85   36   82 1   
    86   37   83 1   
    87   37   84 1   
    88   37   85 1   
@<TRIPOS>SUBSTRUCTURE
     1 TFY         1 TEMP              0 ****  ****    0 ROOT
