@<TRIPOS>MOLECULE
TFZ
   29    30     1     0     0
SMALL
bcc


@<TRIPOS>ATOM
      1 N            0.0000     0.0000     0.0000 ns         1 TFZ      -0.022100
      2 O            1.9550     0.0850     1.0500 o          1 TFZ      -0.622100
      3 F1           5.6160    -0.0190    -0.2380 f          1 TFZ      -0.205300
      4 C2           3.4830    -0.1030    -1.2770 ca         1 TFZ      -0.143300
      5 F2           3.9050    -1.0770     0.8470 f          1 TFZ      -0.205300
      6 C3           2.0880    -0.1030    -1.2750 ca         1 TFZ      -0.097600
      7 F3           3.9060     1.2010     0.6600 f          1 TFZ      -0.205300
      8 C4           1.3940    -0.2010    -2.4820 ca         1 TFZ      -0.093000
      9 C5           2.0900    -0.2980    -3.6690 ca         1 TFZ      -0.076000
     10 C6           3.4740    -0.2980    -3.6640 ca         1 TFZ      -0.083000
     11 C7           4.1680    -0.1950    -2.4720 ca         1 TFZ      -0.057000
     12 C8           1.3480     0.0000     0.0000 c          1 TFZ       0.572700
     13 C9          -0.7000     0.0000     1.2100 ca         1 TFZ      -0.099400
     14 C10         -0.1970     0.6910     2.3050 ca         1 TFZ      -0.114500
     15 C11         -0.8910     0.6880     3.4990 ca         1 TFZ      -0.083500
     16 C12         -2.0860     0.0000     3.6050 ca         1 TFZ      -0.110000
     17 C13         -2.5900    -0.6890     2.5170 ca         1 TFZ      -0.083500
     18 C14         -1.9030    -0.6870     1.3180 ca         1 TFZ      -0.114500
     19 HN          -0.5000     0.0210    -0.8670 hn         1 TFZ       0.170500
     20 H4           0.3100    -0.2020    -2.4870 ha         1 TFZ       0.108000
     21 H5           1.5530    -0.3760    -4.6060 ha         1 TFZ       0.109000
     22 H6           4.0160    -0.3720    -4.5990 ha         1 TFZ       0.111000
     23 H7           5.2510    -0.1960    -2.4750 ha         1 TFZ       0.126000
     24 H10          0.7390     1.2300     2.2230 ha         1 TFZ       0.125500
     25 H11         -0.5000     1.2270     4.3530 ha         1 TFZ       0.103500
     26 H12         -2.6280    -0.0020     4.5430 ha         1 TFZ       0.103000
     27 H13         -3.5270    -1.2260     2.6030 ha         1 TFZ       0.103500
     28 H14         -2.2970    -1.2270     0.4660 ha         1 TFZ       0.125500
     29 C1           4.2410     0.0020     0.0210 c3         1 TFZ       0.660200
@<TRIPOS>BOND
     1     1    12 1   
     2     1    13 1   
     3     1    19 1   
     4     2    12 2   
     5     3    29 1   
     6     4     6 ar  
     7     4    11 ar  
     8     4    29 1   
     9     5    29 1   
    10     6     8 ar  
    11     6    12 1   
    12     7    29 1   
    13     8     9 ar  
    14     8    20 1   
    15     9    10 ar  
    16     9    21 1   
    17    10    11 ar  
    18    10    22 1   
    19    11    23 1   
    20    13    14 ar  
    21    13    18 ar  
    22    14    15 ar  
    23    14    24 1   
    24    15    16 ar  
    25    15    25 1   
    26    16    17 ar  
    27    16    26 1   
    28    17    18 ar  
    29    17    27 1   
    30    18    28 1   
@<TRIPOS>SUBSTRUCTURE
     1 TFZ         1 TEMP              0 ****  ****    0 ROOT
