@<TRIPOS>MOLECULE
TG0
   58    61     1     0     0
SMALL
bcc


@<TRIPOS>ATOM
      1 N01          0.0000     0.0000     0.0000 nv         1 TG0      -0.524200
      2 C02          1.3970     0.0000     0.0000 ca         1 TG0       0.019600
      3 C03          2.0910     0.0000     1.2020 ca         1 TG0      -0.038300
      4 C04          1.3380    -0.0010     2.5080 c3         1 TG0       0.040200
      5 C05          3.4850    -0.0000     1.1960 ca         1 TG0      -0.139600
      6 C06          4.2310    -0.0000     2.4730 c          1 TG0       0.641700
      7 N07          5.3860     0.6860     2.5780 n          1 TG0      -0.131800
      8 C08          6.2850     0.6760     3.7410 c3         1 TG0      -0.032300
      9 C09          5.5500     1.1660     4.9630 c          1 TG0       0.566100
     10 N10          6.0330     0.8980     6.1920 ns         1 TG0      -0.192900
     11 C11          5.3180     1.3730     7.3800 c3         1 TG0       0.111300
     12 C12          6.0610     0.9440     8.6180 ca         1 TG0      -0.122300
     13 C13          7.0330     1.7680     9.1580 ca         1 TG0      -0.082500
     14 C14          7.7180     1.3810    10.2920 ca         1 TG0      -0.092000
     15 C15          7.4270     0.1560    10.8950 ca         1 TG0       0.012000
     16 C16          8.1570    -0.2650    12.1100 cc         1 TG0      -0.055400
     17 C17          7.6010    -0.7260    13.2510 cd         1 TG0       0.331600
     18 C18          6.1130    -0.8760    13.4360 c3         1 TG0      -0.020400
     19 N19          8.4700    -1.0340    14.1890 nd         1 TG0      -0.551000
     20 C20          9.7210    -0.8630    13.9150 cc         1 TG0       0.463300
     21 S21          9.9050    -0.2610    12.3260 ss         1 TG0      -0.306300
     22 C22          6.4440    -0.6700    10.3460 ca         1 TG0      -0.092000
     23 C23          5.7640    -0.2680     9.2150 ca         1 TG0      -0.082500
     24 O24          4.5230     1.7990     4.8400 o          1 TG0      -0.633100
     25 C25          7.4590     1.6260     3.4210 c3         1 TG0      -0.047400
     26 C26          6.8670     2.5540     2.3280 c3         1 TG0       0.179100
     27 O27          7.8970     3.0750     1.4850 oh         1 TG0      -0.575800
     28 C28          5.9590     1.5690     1.5450 c3         1 TG0       0.021000
     29 O29          3.8040    -0.6210     3.4260 o          1 TG0      -0.641100
     30 C30          4.1740     0.0010    -0.0170 ca         1 TG0      -0.112000
     31 C31          3.4750     0.0010    -1.2080 ca         1 TG0      -0.104000
     32 C32          2.0920    -0.0050    -1.2020 ca         1 TG0      -0.111000
     33 H011        -0.5000    -0.7880     0.3610 hn         1 TG0       0.271300
     34 H012        -0.5000     0.7610    -0.4160 hn         1 TG0       0.271300
     35 H32          1.5490    -0.0040    -2.1400 ha         1 TG0       0.105000
     36 H041         1.4680    -0.9580     2.9990 hc         1 TG0       0.023367
     37 H042         0.2850     0.1680     2.3190 hc         1 TG0       0.023367
     38 H043         1.7220     0.7860     3.1460 hc         1 TG0       0.023367
     39 H30          5.2570     0.0030    -0.0250 ha         1 TG0       0.114000
     40 H08          6.6600    -0.3260     3.9070 h1         1 TG0       0.040700
     41 H281         5.1720     2.1090     1.0330 h1         1 TG0       0.035200
     42 H282         6.5480     0.9920     0.8430 h1         1 TG0       0.035200
     43 H251         7.7360     2.1980     4.2970 hc         1 TG0       0.034200
     44 H252         8.3040     1.0700     3.0330 hc         1 TG0       0.034200
     45 H10          6.8510     0.3300     6.2950 hn         1 TG0       0.176500
     46 H111         4.3200     0.9520     7.3930 h1         1 TG0       0.031200
     47 H112         5.2530     2.4540     7.3540 h1         1 TG0       0.031200
     48 H13          7.2580     2.7180     8.6890 ha         1 TG0       0.111500
     49 H23          5.0010    -0.9080     8.7880 ha         1 TG0       0.111500
     50 H14          8.4790     2.0270    10.7140 ha         1 TG0       0.116000
     51 H22          6.2120    -1.6200    10.8110 ha         1 TG0       0.116000
     52 H181         5.6100    -0.0030    13.0350 hc         1 TG0       0.016700
     53 H182         5.8870    -0.9700    14.4910 hc         1 TG0       0.016700
     54 H183         5.7710    -1.7610    12.9130 hc         1 TG0       0.016700
     55 H20         10.5370    -1.0770    14.5940 h5         1 TG0       0.025100
     56 H26          6.2800     3.3480     2.7730 h1         1 TG0       0.025700
     57 H27          7.8850     4.0170     1.5200 ho         1 TG0       0.394000
     58 H31          4.0110     0.0000    -2.1490 ha         1 TG0       0.102000
@<TRIPOS>BOND
     1     1     2 1   
     2     1    33 1   
     3     1    34 1   
     4     2     3 ar  
     5     2    32 ar  
     6     3     4 1   
     7     3     5 ar  
     8     4    36 1   
     9     4    37 1   
    10     4    38 1   
    11     5     6 1   
    12     5    30 ar  
    13     6     7 1   
    14     6    29 2   
    15     7     8 1   
    16     7    28 1   
    17     8     9 1   
    18     8    25 1   
    19     8    40 1   
    20     9    10 1   
    21     9    24 2   
    22    10    11 1   
    23    10    45 1   
    24    11    12 1   
    25    11    46 1   
    26    11    47 1   
    27    12    13 ar  
    28    12    23 ar  
    29    13    14 ar  
    30    13    48 1   
    31    14    15 ar  
    32    14    50 1   
    33    15    16 1   
    34    15    22 ar  
    35    16    17 2   
    36    16    21 1   
    37    17    18 1   
    38    17    19 1   
    39    18    52 1   
    40    18    53 1   
    41    18    54 1   
    42    19    20 2   
    43    20    21 1   
    44    20    55 1   
    45    22    23 ar  
    46    22    51 1   
    47    23    49 1   
    48    25    26 1   
    49    25    43 1   
    50    25    44 1   
    51    26    27 1   
    52    26    28 1   
    53    26    56 1   
    54    27    57 1   
    55    28    41 1   
    56    28    42 1   
    57    30    31 ar  
    58    30    39 1   
    59    31    32 ar  
    60    31    58 1   
    61    32    35 1   
@<TRIPOS>SUBSTRUCTURE
     1 TG0         1 TEMP              0 ****  ****    0 ROOT
