@<TRIPOS>MOLECULE
molecule
   58    61     1     0     0
SMALL
bcc


@<TRIPOS>ATOM
      1 N01          0.0000     0.0000     0.0000 nv         1 TG0      -0.969200
      2 C02          1.3970     0.0000     0.0000 ca         1 TG0       0.159600
      3 C03          2.0910     0.0000     1.2020 ca         1 TG0      -0.045300
      4 C04          1.3380    -0.0010     2.5080 c3         1 TG0      -0.051800
      5 C05          3.4850    -0.0000     1.1960 ca         1 TG0      -0.132600
      6 C06          4.2310    -0.0000     2.4730 c          1 TG0       0.706700
      7 N07          5.3860     0.6860     2.5780 n          1 TG0      -0.476800
      8 C08          6.2850     0.6760     3.7410 c3         1 TG0       0.044700
      9 C09          5.5500     1.1660     4.9630 c          1 TG0       0.651100
     10 N10          6.0330     0.8980     6.1920 ns         1 TG0      -0.584900
     11 C11          5.3180     1.3730     7.3800 c3         1 TG0       0.161300
     12 C12          6.0610     0.9440     8.6180 ca         1 TG0      -0.114300
     13 C13          7.0330     1.7680     9.1580 ca         1 TG0      -0.112500
     14 C14          7.7180     1.3810    10.2920 ca         1 TG0      -0.116500
     15 C15          7.4270     0.1560    10.8950 ca         1 TG0       0.002000
     16 C16          8.1570    -0.2650    12.1100 cc         1 TG0      -0.104400
     17 C17          7.6010    -0.7260    13.2510 cd         1 TG0       0.382600
     18 C18          6.1130    -0.8760    13.4360 c3         1 TG0      -0.117400
     19 N19          8.4700    -1.0340    14.1890 nd         1 TG0      -0.674000
     20 C20          9.7210    -0.8630    13.9150 cc         1 TG0       0.440300
     21 S21          9.9050    -0.2610    12.3260 ss         1 TG0      -0.202300
     22 C22          6.4440    -0.6700    10.3460 ca         1 TG0      -0.116500
     23 C23          5.7640    -0.2680     9.2150 ca         1 TG0      -0.112500
     24 O24          4.5230     1.7990     4.8400 o          1 TG0      -0.590100
     25 C25          7.4590     1.6260     3.4210 c3         1 TG0      -0.101400
     26 C26          6.8670     2.5540     2.3280 c3         1 TG0       0.128100
     27 O27          7.8970     3.0750     1.4850 oh         1 TG0      -0.596800
     28 C28          5.9590     1.5690     1.5450 c3         1 TG0       0.088000
     29 O29          3.8040    -0.6210     3.4260 o          1 TG0      -0.594100
     30 C30          4.1740     0.0010    -0.0170 ca         1 TG0      -0.126000
     31 C31          3.4750     0.0010    -1.2080 ca         1 TG0      -0.134000
     32 C32          2.0920    -0.0050    -1.2020 ca         1 TG0      -0.138000
     33 H011        -0.5000    -0.7880     0.3610 hn         1 TG0       0.428800
     34 H012        -0.5000     0.7610    -0.4160 hn         1 TG0       0.428800
     35 H32          1.5490    -0.0040    -2.1400 ha         1 TG0       0.133000
     36 H041         1.4680    -0.9580     2.9990 hc         1 TG0       0.056033
     37 H042         0.2850     0.1680     2.3190 hc         1 TG0       0.056033
     38 H043         1.7220     0.7860     3.1460 hc         1 TG0       0.056033
     39 H30          5.2570     0.0030    -0.0250 ha         1 TG0       0.135000
     40 H08          6.6600    -0.3260     3.9070 h1         1 TG0       0.071700
     41 H281         5.1720     2.1090     1.0330 h1         1 TG0       0.062200
     42 H282         6.5480     0.9920     0.8430 h1         1 TG0       0.062200
     43 H251         7.7360     2.1980     4.2970 hc         1 TG0       0.068200
     44 H252         8.3040     1.0700     3.0330 hc         1 TG0       0.068200
     45 H10          6.8510     0.3300     6.2950 hn         1 TG0       0.315500
     46 H111         4.3200     0.9520     7.3930 h1         1 TG0       0.061200
     47 H112         5.2530     2.4540     7.3540 h1         1 TG0       0.061200
     48 H13          7.2580     2.7180     8.6890 ha         1 TG0       0.139500
     49 H23          5.0010    -0.9080     8.7880 ha         1 TG0       0.139500
     50 H14          8.4790     2.0270    10.7140 ha         1 TG0       0.140000
     51 H22          6.2120    -1.6200    10.8110 ha         1 TG0       0.140000
     52 H181         5.6100    -0.0030    13.0350 hc         1 TG0       0.053367
     53 H182         5.8870    -0.9700    14.4910 hc         1 TG0       0.053367
     54 H183         5.7710    -1.7610    12.9130 hc         1 TG0       0.053367
     55 H20         10.5370    -1.0770    14.5940 h5         1 TG0       0.062100
     56 H26          6.2800     3.3480     2.7730 h1         1 TG0       0.062700
     57 H27          7.8850     4.0170     1.5200 ho         1 TG0       0.409000
     58 H31          4.0110     0.0000    -2.1490 ha         1 TG0       0.131000
@<TRIPOS>BOND
     1     1     2 1
     2     2     3 ar
     3     2    32 ar
     4     3     4 1
     5     3     5 ar
     6     5     6 1
     7     5    30 ar
     8     6     7 1
     9     6    29 2
    10     7     8 1
    11     7    28 1
    12     8     9 1
    13     8    25 1
    14     9    10 1
    15     9    24 2
    16    10    11 1
    17    11    12 1
    18    12    13 ar
    19    12    23 ar
    20    13    14 ar
    21    14    15 ar
    22    15    16 1
    23    15    22 ar
    24    16    17 2
    25    16    21 1
    26    17    18 1
    27    17    19 1
    28    19    20 2
    29    20    21 1
    30    22    23 ar
    31    25    26 1
    32    26    27 1
    33    26    28 1
    34    30    31 ar
    35    31    32 ar
    36     1    33 1
    37     1    34 1
    38    32    35 1
    39     4    36 1
    40     4    37 1
    41     4    38 1
    42    30    39 1
    43     8    40 1
    44    28    41 1
    45    28    42 1
    46    25    43 1
    47    25    44 1
    48    10    45 1
    49    11    46 1
    50    11    47 1
    51    13    48 1
    52    23    49 1
    53    14    50 1
    54    22    51 1
    55    18    52 1
    56    18    53 1
    57    18    54 1
    58    20    55 1
    59    26    56 1
    60    27    57 1
    61    31    58 1
@<TRIPOS>SUBSTRUCTURE
     1 TG0         1 TEMP              0 ****  ****    0 ROOT
