@<TRIPOS>MOLECULE
TG4
   45    45     1     0     0
SMALL
bcc


@<TRIPOS>ATOM
      1 C01          0.0000     0.0000     0.0000 c          1 TG4       0.572100
      2 O02          1.2130     0.0000     0.0000 o          1 TG4      -0.616100
      3 N03          0.2010     0.0020     2.4220 n7         1 TG4      -0.557200
      4 C04         -0.7530     0.0000     1.3050 c3         1 TG4       0.080800
      5 S05          2.0820     0.0360    -8.8240 sy         1 TG4       0.934200
      6 C06          0.1640     1.2190    -5.4970 ca         1 TG4      -0.103500
      7 C07         -0.1820     0.0190    -4.9040 ca         1 TG4       0.023700
      8 C08          0.1640    -1.1750    -5.5070 ca         1 TG4      -0.103500
      9 C09          0.8560    -1.1700    -6.7040 ca         1 TG4       0.017000
     10 C10          1.2000     0.0300    -7.2980 ca         1 TG4      -0.232500
     11 C11          0.8540     1.2240    -6.6950 ca         1 TG4       0.017000
     12 C12         -0.9350     0.0140    -3.5980 c3         1 TG4      -0.005100
     13 C13          0.0580     0.0100    -2.4350 c3         1 TG4       0.064000
     14 N14         -0.6730     0.0040    -1.1670 ns         1 TG4      -0.219900
     15 O15          2.7530     1.2880    -8.8940 o          1 TG4      -0.493800
     16 O16          2.7550    -1.2120    -8.9040 o          1 TG4      -0.493800
     17 N17          0.9570     0.0400   -10.0390 nz         1 TG4      -0.132500
     18 C18         -0.5000     0.0030     3.7130 c3         1 TG4       0.138800
     19 C19          0.5260     0.0040     4.8490 c3         1 TG4      -0.028400
     20 C20         -0.2040     0.0040     6.1940 c3         1 TG4      -0.026400
     21 C21          0.8210     0.0060     7.3300 c3         1 TG4       0.007900
     22 H1           0.7870    -0.8070     2.3610 hn         1 TG4       0.268800
     23 H3          -1.3750    -0.8850     1.3630 h1         1 TG4       0.018200
     24 H4          -1.3770     0.8840     1.3620 h1         1 TG4       0.018200
     25 H5          -0.1080     2.1550    -5.0240 ha         1 TG4       0.135500
     26 H6          -0.1060    -2.1150    -5.0420 ha         1 TG4       0.135500
     27 H7           1.1270    -2.1060    -7.1770 ha         1 TG4       0.126500
     28 H8           1.1250     2.1650    -7.1590 ha         1 TG4       0.126500
     29 H9          -1.5580     0.8980    -3.5380 hc         1 TG4       0.034200
     30 H10         -1.5580    -0.8710    -3.5440 hc         1 TG4       0.034200
     31 H11          0.6810     0.8950    -2.4890 h1         1 TG4       0.029700
     32 H12          0.6820    -0.8740    -2.4960 h1         1 TG4       0.029700
     33 H13         -1.6740     0.0040    -1.1660 hn         1 TG4       0.176500
     34 H14          0.3850    -0.7780    -9.9670 hn         1 TG4       0.313133
     35 H15          1.4230     0.0440   -10.9250 hn         1 TG4       0.313133
     36 H16         -1.1200    -0.8820     3.7880 h1         1 TG4       0.004700
     37 H17         -1.1210     0.8870     3.7860 h1         1 TG4       0.004700
     38 H18          1.1460     0.8890     4.7740 hc         1 TG4       0.023200
     39 H19          1.1470    -0.8810     4.7750 hc         1 TG4       0.023200
     40 H20         -0.8240    -0.8810     6.2690 hc         1 TG4       0.011200
     41 H21         -0.8260     0.8880     6.2680 hc         1 TG4       0.011200
     42 H22          1.4040    -0.9060     7.2920 hc         1 TG4       0.002700
     43 H23          1.4790     0.8600     7.2210 hc         1 TG4       0.002700
     44 H24          0.3060     0.0660     8.2810 hc         1 TG4       0.002700
     45 H173         0.3840     0.8560    -9.9600 hn         1 TG4       0.313133
@<TRIPOS>BOND
     1     1     2 2   
     2     1     4 1   
     3     1    14 1   
     4     3     4 1   
     5     3    18 1   
     6     3    22 1   
     7     4    23 1   
     8     4    24 1   
     9     5    10 1   
    10     5    15 2   
    11     5    16 2   
    12     5    17 1   
    13     6     7 ar  
    14     6    11 ar  
    15     6    25 1   
    16     7     8 ar  
    17     7    12 1   
    18     8     9 ar  
    19     8    26 1   
    20     9    10 ar  
    21     9    27 1   
    22    10    11 ar  
    23    11    28 1   
    24    12    13 1   
    25    12    29 1   
    26    12    30 1   
    27    13    14 1   
    28    13    31 1   
    29    13    32 1   
    30    14    33 1   
    31    17    34 1   
    32    17    35 1   
    33    17    45 1   
    34    18    19 1   
    35    18    36 1   
    36    18    37 1   
    37    19    20 1   
    38    19    38 1   
    39    19    39 1   
    40    20    21 1   
    41    20    40 1   
    42    20    41 1   
    43    21    42 1   
    44    21    43 1   
    45    21    44 1   
@<TRIPOS>SUBSTRUCTURE
     1 TG4         1 TEMP              0 ****  ****    0 ROOT
