@<TRIPOS>MOLECULE
molecule
   39    39     1     0     0
SMALL
bcc


@<TRIPOS>ATOM
      1 C01          0.0000     0.0000     0.0000 ca         1 TG5      -0.159500
      2 C02          1.3880     0.0000     0.0000 ca         1 TG5       0.169600
      3 C03          2.0800     0.0000     1.2040 ca         1 TG5      -0.159500
      4 C04          1.3860     0.0010     2.3980 ca         1 TG5      -0.007500
      5 C05          0.0030     0.0010     2.3950 ca         1 TG5      -0.370500
      6 C06         -0.6890     0.0000     1.1970 ca         1 TG5      -0.007500
      7 N07          2.0900    -0.0020    -1.2110 ns         1 TG5      -0.484100
      8 C08          3.2710    -0.6430    -1.3050 c          1 TG5       0.655100
      9 O09          3.6820    -1.2990    -0.3710 o          1 TG5      -0.550100
     10 N10          5.3180    -1.3270    -2.4220 n7         1 TG5      -0.800200
     11 C11          4.0830    -0.5460    -2.5720 c3         1 TG5       0.090800
     12 S12         -0.8790     0.0010     3.9200 sy         1 TG5       1.224200
     13 O13         -2.1620    -0.5430     3.6410 o          1 TG5      -0.520800
     14 O14          0.0010    -0.5430     4.8940 o          1 TG5      -0.520800
     15 N15         -1.1250     1.5830     4.3440 nz         1 TG5      -0.805500
     16 C16          6.1370    -1.2550    -3.6400 c3         1 TG5       0.154800
     17 C17          7.4120    -2.0800    -3.4470 c3         1 TG5      -0.080400
     18 C18          8.2630    -2.0050    -4.7160 c3         1 TG5      -0.084400
     19 C19          9.5390    -2.8280    -4.5230 c3         1 TG5      -0.090100
     20 H1          -0.5420    -0.0000    -0.9380 ha         1 TG5       0.179000
     21 H2           3.1640     0.0000     1.2060 ha         1 TG5       0.179000
     22 H3           1.9260     0.0020     3.3370 ha         1 TG5       0.157000
     23 H4          -1.7720    -0.0000     1.1980 ha         1 TG5       0.157000
     24 H5           1.7220     0.4870    -2.0030 hn         1 TG5       0.341500
     25 H6           5.0880    -2.2820    -2.2310 hn         1 TG5       0.372800
     26 H8           3.5060    -0.9380    -3.4010 h1         1 TG5       0.058700
     27 H9           4.3320     0.4900    -2.7630 h1         1 TG5       0.058700
     28 H10         -1.6270     1.6220     5.2080 hn         1 TG5       0.490133
     29 H11         -0.2410     2.0410     4.4490 hn         1 TG5       0.490133
     30 H12          6.4010    -0.2230    -3.8370 h1         1 TG5       0.035200
     31 H13          5.5740    -1.6510    -4.4770 h1         1 TG5       0.035200
     32 H14          7.9750    -1.6840    -2.6100 hc         1 TG5       0.053200
     33 H15          7.1480    -3.1120    -3.2490 hc         1 TG5       0.053200
     34 H16          7.7010    -2.4010    -5.5520 hc         1 TG5       0.041700
     35 H17          8.5260    -0.9720    -4.9130 hc         1 TG5       0.041700
     36 H18          9.2780    -3.8700    -4.3840 hc         1 TG5       0.037367
     37 H19         10.1690    -2.7270    -5.3970 hc         1 TG5       0.037367
     38 H20         10.0710    -2.4700    -3.6500 hc         1 TG5       0.037367
     39 H153        -1.6480     2.0430     3.6260 hn         1 TG5       0.490133
@<TRIPOS>BOND
     1    19    18 1
     2    18    17 1
     3    17    16 1
     4    16    10 1
     5    10    11 1
     6     9     8 2
     7    11     8 1
     8     8     7 1
     9     7     2 1
    10     2     3 ar
    11     2     1 ar
    12     3     4 ar
    13     1     6 ar
    14     4     5 ar
    15     6     5 ar
    16     5    12 1
    17    15    12 1
    18    13    12 2
    19    12    14 2
    20     1    20 1
    21     3    21 1
    22     4    22 1
    23     6    23 1
    24     7    24 1
    25    10    25 1
    26    11    26 1
    27    11    27 1
    28    15    28 1
    29    15    29 1
    30    16    30 1
    31    16    31 1
    32    17    32 1
    33    17    33 1
    34    18    34 1
    35    18    35 1
    36    19    36 1
    37    19    37 1
    38    19    38 1
    39    39    15 1
@<TRIPOS>SUBSTRUCTURE
     1 TG5         1 TEMP              0 ****  ****    0 ROOT
