@<TRIPOS>MOLECULE
TG5
   39    39     1     0     0
SMALL
bcc


@<TRIPOS>ATOM
      1 C01          0.0000     0.0000     0.0000 ca         1 TG5      -0.141500
      2 C02          1.3880     0.0000     0.0000 ca         1 TG5       0.026600
      3 C03          2.0800     0.0000     1.2040 ca         1 TG5      -0.141500
      4 C04          1.3860     0.0010     2.3980 ca         1 TG5       0.037000
      5 C05          0.0030     0.0010     2.3950 ca         1 TG5      -0.257500
      6 C06         -0.6890     0.0000     1.1970 ca         1 TG5       0.037000
      7 N07          2.0900    -0.0020    -1.2110 ns         1 TG5      -0.046100
      8 C08          3.2710    -0.6430    -1.3050 c          1 TG5       0.561100
      9 O09          3.6820    -1.2990    -0.3710 o          1 TG5      -0.586100
     10 N10          5.3180    -1.3270    -2.4220 n7         1 TG5      -0.560200
     11 C11          4.0830    -0.5460    -2.5720 c3         1 TG5       0.080800
     12 S12         -0.8790     0.0010     3.9200 sy         1 TG5       0.933200
     13 O13         -2.1620    -0.5430     3.6410 o          1 TG5      -0.496800
     14 O14          0.0010    -0.5430     4.8940 o          1 TG5      -0.496800
     15 N15         -1.1250     1.5830     4.3440 nz         1 TG5      -0.132500
     16 C16          6.1370    -1.2550    -3.6400 c3         1 TG5       0.139800
     17 C17          7.4120    -2.0800    -3.4470 c3         1 TG5      -0.028400
     18 C18          8.2630    -2.0050    -4.7160 c3         1 TG5      -0.026400
     19 C19          9.5390    -2.8280    -4.5230 c3         1 TG5       0.007900
     20 H1          -0.5420    -0.0000    -0.9380 ha         1 TG5       0.149500
     21 H2           3.1640     0.0000     1.2060 ha         1 TG5       0.149500
     22 H3           1.9260     0.0020     3.3370 ha         1 TG5       0.124500
     23 H4          -1.7720    -0.0000     1.1980 ha         1 TG5       0.124500
     24 H5           1.7220     0.4870    -2.0030 hn         1 TG5       0.185500
     25 H6           5.0880    -2.2820    -2.2310 hn         1 TG5       0.270800
     26 H8           3.5060    -0.9380    -3.4010 h1         1 TG5       0.025700
     27 H9           4.3320     0.4900    -2.7630 h1         1 TG5       0.025700
     28 H10         -1.6270     1.6220     5.2080 hn         1 TG5       0.312133
     29 H11         -0.2410     2.0410     4.4490 hn         1 TG5       0.312133
     30 H12          6.4010    -0.2230    -3.8370 h1         1 TG5       0.007200
     31 H13          5.5740    -1.6510    -4.4770 h1         1 TG5       0.007200
     32 H14          7.9750    -1.6840    -2.6100 hc         1 TG5       0.023200
     33 H15          7.1480    -3.1120    -3.2490 hc         1 TG5       0.023200
     34 H16          7.7010    -2.4010    -5.5520 hc         1 TG5       0.012200
     35 H17          8.5260    -0.9720    -4.9130 hc         1 TG5       0.012200
     36 H18          9.2780    -3.8700    -4.3840 hc         1 TG5       0.003700
     37 H19         10.1690    -2.7270    -5.3970 hc         1 TG5       0.003700
     38 H20         10.0710    -2.4700    -3.6500 hc         1 TG5       0.003700
     39 H153        -1.6480     2.0430     3.6260 hn         1 TG5       0.312133
@<TRIPOS>BOND
     1     1     2 ar  
     2     1     6 ar  
     3     1    20 1   
     4     2     3 ar  
     5     2     7 1   
     6     3     4 ar  
     7     3    21 1   
     8     4     5 ar  
     9     4    22 1   
    10     5     6 ar  
    11     5    12 1   
    12     6    23 1   
    13     7     8 1   
    14     7    24 1   
    15     8     9 2   
    16     8    11 1   
    17    10    11 1   
    18    10    16 1   
    19    10    25 1   
    20    11    26 1   
    21    11    27 1   
    22    12    13 2   
    23    12    14 2   
    24    12    15 1   
    25    15    28 1   
    26    15    29 1   
    27    15    39 1   
    28    16    17 1   
    29    16    30 1   
    30    16    31 1   
    31    17    18 1   
    32    17    32 1   
    33    17    33 1   
    34    18    19 1   
    35    18    34 1   
    36    18    35 1   
    37    19    36 1   
    38    19    37 1   
    39    19    38 1   
@<TRIPOS>SUBSTRUCTURE
     1 TG5         1 TEMP              0 ****  ****    0 ROOT
