@<TRIPOS>MOLECULE
molecule
   27    26     1     0     0
SMALL
bcc


@<TRIPOS>ATOM
      1 O1           0.0000     0.0000     0.0000 oh         1 TG6      -0.600800
      2 C1           1.4300     0.0000     0.0000 c3         1 TG6       0.032400
      3 C2           1.9310     0.0000     1.4210 c          1 TG6       0.533100
      4 C3           3.4120    -0.0000     1.6970 c3         1 TG6       0.046100
      5 C4           3.9820    -1.3940     1.4240 c3         1 TG6       0.153100
      6 C5           5.4860    -1.3940     1.7040 c3         1 TG6       0.125100
      7 C6           6.0780    -2.7500     1.3130 c3         1 TG6       0.206400
      8 O63          9.8460    -3.8350     2.0770 o          1 TG6      -0.908167
      9 P6           8.3970    -4.0730     1.4180 p5         1 TG6       1.177900
     10 O61          8.5580    -4.3030    -0.1670 o          1 TG6      -0.908167
     11 O62          7.7800    -5.2710     2.0300 o          1 TG6      -0.908167
     12 O6           7.4580    -2.7920     1.6820 os         1 TG6      -0.577200
     13 O5           6.1130    -0.3630     0.9390 oh         1 TG6      -0.612800
     14 O4           3.7510    -1.7430     0.0570 oh         1 TG6      -0.602800
     15 O3           3.6420     0.3490     3.0630 oh         1 TG6      -0.573800
     16 O2           1.1460     0.0010     2.3380 o          1 TG6      -0.505100
     17 H1          -0.3140     0.2310    -0.8580 ho         1 TG6       0.390000
     18 H2           1.7910     0.8840    -0.5110 h1         1 TG6       0.056700
     19 H3           1.7900    -0.8850    -0.5100 h1         1 TG6       0.056700
     20 H4           3.9000     0.7220     1.0530 h1         1 TG6       0.071700
     21 H5           3.4950    -2.1160     2.0680 h1         1 TG6       0.052700
     22 H6           5.6570    -1.2160     2.7580 h1         1 TG6       0.047700
     23 H7           5.5430    -3.5390     1.8280 h1         1 TG6       0.021200
     24 H8           5.9850    -2.8900     0.2430 h1         1 TG6       0.021200
     25 H11          6.7740     0.0600     1.4620 ho         1 TG6       0.402000
     26 H12          3.3830    -2.6100     0.0120 ho         1 TG6       0.406000
     27 H13          3.7590     1.2820     3.1340 ho         1 TG6       0.395000
@<TRIPOS>BOND
     1    11     9 1
     2    10     9 1
     3     9     8 1
     4     9    12 1
     5    12     7 1
     6     7     6 1
     7    14     5 1
     8    13     6 1
     9     6     5 1
    10     5     4 1
    11     2     3 1
    12     2     1 1
    13     4     3 1
    14     4    15 1
    15     3    16 2
    16     1    17 1
    17     2    18 1
    18     2    19 1
    19     4    20 1
    20     5    21 1
    21     6    22 1
    22     7    23 1
    23     7    24 1
    24    13    25 1
    25    14    26 1
    26    15    27 1
@<TRIPOS>SUBSTRUCTURE
     1 TG6         1 TEMP              0 ****  ****    0 ROOT
