@<TRIPOS>MOLECULE
TG6
   27    26     1     0     0
SMALL
bcc


@<TRIPOS>ATOM
      1 O1          2.5220    0.2610   -1.4540 oh        1 TG6     -0.618800
      2 C1          3.2960   -0.0940   -0.3200 c3        1 TG6     -0.009600
      3 C2          2.4310   -0.2860    0.8920 c         1 TG6      0.557100
      4 C3          3.1260   -0.2770    2.2400 c3        1 TG6      0.018100
      5 C4          4.0060   -1.5360    2.4570 c3        1 TG6      0.131100
      6 C5          5.5020   -1.1710    2.3390 c3        1 TG6      0.098100
      7 C6          6.3980   -2.4370    2.2260 c3        1 TG6      0.189400
      8 O63         7.7110   -3.2650   -1.2390 o         1 TG6     -0.917167
      9 P6          6.6150   -3.3340   -0.2270 p5        1 TG6      1.331900
     10 O61         5.3940   -2.4550   -0.4740 o         1 TG6     -0.917167
     11 O62         6.2860   -4.6540    0.4000 o         1 TG6     -0.917167
     12 O6          7.2000   -2.4010    1.1140 os        1 TG6     -0.567200
     13 O5          5.7050   -0.2680    1.2760 oh        1 TG6     -0.669800
     14 O4          3.5610   -2.5680    1.6180 oh        1 TG6     -0.673800
     15 O3          2.1680   -0.1610    3.2860 oh        1 TG6     -0.627800
     16 O2          1.2020   -0.4440    0.8160 o         1 TG6     -0.610100
     17 H1          1.9520   -0.4950   -1.6360 ho        1 TG6      0.398000
     18 H2          4.0130    0.7550   -0.1660 h1        1 TG6      0.140700
     19 H3          3.9050   -1.0420   -0.5040 h1        1 TG6      0.140700
     20 H4          3.7580    0.6510    2.3290 h1        1 TG6      0.091700
     21 H5          3.8150   -1.8930    3.5120 h1        1 TG6      0.022700
     22 H6          5.7740   -0.5920    3.2670 h1        1 TG6      0.006700
     23 H7          5.7580   -3.3660    2.2250 h1        1 TG6      0.005700
     24 H8          7.0510   -2.4540    3.1480 h1        1 TG6      0.005700
     25 H11         5.9260   -0.8130    0.4820 ho        1 TG6      0.481000
     26 H12         4.2230   -2.7110    0.8860 ho        1 TG6      0.503000
     27 H13         1.5120   -0.8530    3.1310 ho        1 TG6      0.406000
@<TRIPOS>BOND
     1    1    2 1   
     2    1   17 1   
     3    2    3 1   
     4    2   18 1   
     5    2   19 1   
     6    3    4 1   
     7    3   16 2   
     8    4    5 1   
     9    4   15 1   
    10    4   20 1   
    11    5    6 1   
    12    5   14 1   
    13    5   21 1   
    14    6    7 1   
    15    6   13 1   
    16    6   22 1   
    17    7   12 1   
    18    7   23 1   
    19    7   24 1   
    20    8    9 1   
    21    9   10 1   
    22    9   11 1   
    23    9   12 1   
    24   13   25 1   
    25   14   26 1   
    26   15   27 1   
@<TRIPOS>SUBSTRUCTURE
     1 TG6         1 TEMP              0 ****  ****    0 ROOT
