@<TRIPOS>MOLECULE
TGA
   31    31     1     0     0
SMALL
bcc


@<TRIPOS>ATOM
      1 O2          0.0570    0.0380    0.1930 oh        1 TGA     -0.605800
      2 C2          1.4690    0.0510    0.0960 c3        1 TGA      0.086100
      3 C3          2.0170   -0.0140    1.5290 c3        1 TGA      0.111100
      4 O3          1.7180   -1.2630    2.1270 oh        1 TGA     -0.606800
      5 C4          3.5510    0.1040    1.5040 c3        1 TGA      0.123100
      6 O4          4.1510   -1.0260    0.8980 oh        1 TGA     -0.590800
      7 C5          3.9670    1.3560    0.7180 c3        1 TGA      0.111100
      8 C6          5.4820    1.3800    0.4800 c3        1 TGA      0.143400
      9 O6          5.8750    2.5910   -0.1270 oh        1 TGA     -0.598800
     10 O5          3.3810    1.4200   -0.5840 os        1 TGA     -0.440600
     11 C1          1.9610    1.3520   -0.5660 c3        1 TGA      0.311900
     12 O1          1.6280    1.2640   -1.9330 os        1 TGA     -0.424600
     13 C13         1.9090    2.4630   -2.6690 c3        1 TGA      0.147400
     14 C14         1.5400    2.1630   -4.1050 c3        1 TGA     -0.002300
     15 S15         1.6180    3.6980   -4.9840 sh        1 TGA     -0.368900
     16 H           1.4910    3.2300   -6.2140 hs        1 TGA      0.208800
     17 H2         -0.2800    0.0860   -0.7110 ho        1 TGA      0.426000
     18 HA          1.8330   -0.8350   -0.4960 h1        1 TGA      0.086700
     19 H3          1.5720    0.8150    2.1450 h1        1 TGA      0.058700
     20 H1          1.5240    2.2670   -0.0800 h2        1 TGA      0.051700
     21 HB          0.7680   -1.4070    2.0110 ho        1 TGA      0.431000
     22 H4          3.9250    0.1940    2.5640 h1        1 TGA      0.057700
     23 HC          3.7530   -1.8070    1.3090 ho        1 TGA      0.425000
     24 H5          3.6450    2.2650    1.3000 h1        1 TGA      0.053700
     25 H61C        5.7770    0.4990   -0.1500 h1        1 TGA      0.067700
     26 H62C        6.0170    1.3510    1.4650 h1        1 TGA      0.067700
     27 H6          5.4410    2.6290   -0.9890 ho        1 TGA      0.412000
     28 H131        1.2880    3.3020   -2.2540 h1        1 TGA      0.054700
     29 H132        2.9980    2.7150   -2.5710 h1        1 TGA      0.054700
     30 H141        2.2460    1.4130   -4.5340 h1        1 TGA      0.074700
     31 H142        0.5110    1.7310   -4.1550 h1        1 TGA      0.074700
@<TRIPOS>BOND
     1    1    2 1   
     2    1   17 1   
     3    2    3 1   
     4    2   11 1   
     5    2   18 1   
     6    3    4 1   
     7    3    5 1   
     8    3   19 1   
     9    4   21 1   
    10    5    6 1   
    11    5    7 1   
    12    5   22 1   
    13    6   23 1   
    14    7    8 1   
    15    7   10 1   
    16    7   24 1   
    17    8    9 1   
    18    8   25 1   
    19    8   26 1   
    20    9   27 1   
    21   10   11 1   
    22   11   12 1   
    23   11   20 1   
    24   12   13 1   
    25   13   14 1   
    26   13   28 1   
    27   13   29 1   
    28   14   15 1   
    29   14   30 1   
    30   14   31 1   
    31   15   16 1   
@<TRIPOS>SUBSTRUCTURE
     1 TGA         1 TEMP              0 ****  ****    0 ROOT
