@<TRIPOS>MOLECULE
molecule
   31    31     1     0     0
SMALL
bcc


@<TRIPOS>ATOM
      1 O2           0.0000     0.0000     0.0000 oh         1 TGA      -0.599800
      2 C2           1.4290     0.0000     0.0000 c3         1 TGA       0.125100
      3 C3           1.9410     0.0000     1.4440 c3         1 TGA       0.122100
      4 O3           1.5300    -1.2030     2.0970 oh         1 TGA      -0.592800
      5 C4           3.4710     0.0780     1.4320 c3         1 TGA       0.099100
      6 O4           4.0030    -1.0840     0.7920 oh         1 TGA      -0.578800
      7 C5           3.9040     1.3290     0.6620 c3         1 TGA       0.159100
      8 C6           5.4300     1.3830     0.5930 c3         1 TGA       0.149400
      9 O6           5.8370     2.6070    -0.0230 oh         1 TGA      -0.600800
     10 O5           3.3690     1.2810    -0.6630 os         1 TGA      -0.420600
     11 C1           1.9400     1.2540    -0.7150 c3         1 TGA       0.344900
     12 O1           1.5140     1.2330    -2.0780 os         1 TGA      -0.404600
     13 C13          1.8420     2.4160    -2.8090 c3         1 TGA       0.153400
     14 C14          1.3400     2.2830    -4.2470 c3         1 TGA       0.039700
     15 S15          1.7580     3.7850    -5.1750 sh         1 TGA      -0.422900
     16 H            1.3230     3.6700    -6.4240 hs         1 TGA       0.222800
     17 H2          -0.3140    -0.7920    -0.4030 ho         1 TGA       0.416000
     18 HA           1.7950    -0.8810    -0.5120 h1         1 TGA       0.085700
     19 H3           1.5400     0.8590     1.9680 h1         1 TGA       0.047700
     20 H1           1.5460     2.1350    -0.2220 h2         1 TGA       0.036700
     21 HB           1.1080    -0.9890     2.9130 ho         1 TGA       0.406000
     22 H4           3.8360     0.1380     2.4500 h1         1 TGA       0.041700
     23 HC           4.3990    -1.6440     1.4390 ho         1 TGA       0.406000
     24 H5           3.5290     2.2100     1.1680 h1         1 TGA       0.050700
     25 H61C         5.7950     0.5470     0.0090 h1         1 TGA       0.037700
     26 H62C         5.8390     1.3290     1.5950 h1         1 TGA       0.037700
     27 H6           6.7750     2.6920     0.0360 ho         1 TGA       0.404000
     28 H131         1.3730     3.2720    -2.3400 h1         1 TGA       0.050700
     29 H132         2.9170     2.5510    -2.8130 h1         1 TGA       0.050700
     30 H141         1.8090     1.4270    -4.7160 h1         1 TGA       0.066700
     31 H142         0.2650     2.1490    -4.2430 h1         1 TGA       0.066700
@<TRIPOS>BOND
     1     1     2 1
     2     2     3 1
     3     2    11 1
     4     3     4 1
     5     3     5 1
     6     5     6 1
     7     5     7 1
     8     7     8 1
     9     7    10 1
    10     8     9 1
    11    10    11 1
    12    11    12 1
    13    12    13 1
    14    13    14 1
    15    14    15 1
    16    15    16 1
    17     1    17 1
    18     2    18 1
    19     3    19 1
    20    11    20 1
    21     4    21 1
    22     5    22 1
    23     6    23 1
    24     7    24 1
    25     8    25 1
    26     8    26 1
    27     9    27 1
    28    13    28 1
    29    13    29 1
    30    14    30 1
    31    14    31 1
@<TRIPOS>SUBSTRUCTURE
     1 TGA         1 TEMP              0 ****  ****    0 ROOT
