@<TRIPOS>MOLECULE
molecule
   23    22     1     0     0
SMALL
bcc


@<TRIPOS>ATOM
      1 C1           0.0000     0.0000     0.0000 c3         1 TGD      -0.187100
      2 C2           1.5070     0.0000     0.0000 c          1 TGD       0.530100
      3 C3           2.2600     0.0000     1.3050 c3         1 TGD       0.046100
      4 C4           2.1910     1.3940     1.9340 c3         1 TGD       0.164100
      5 O2           2.1110     0.0010    -1.0460 o          1 TGD      -0.509100
      6 O3           3.6250    -0.3480     1.0680 oh         1 TGD      -0.589800
      7 O4           0.8260     1.7410     2.1710 oh         1 TGD      -0.591800
      8 C5           2.9550     1.3930     3.2590 c3         1 TGD       0.141100
      9 O5           2.4440     0.3610     4.1040 oh         1 TGD      -0.594800
     10 C6           2.7830     2.7490     3.9470 c3         1 TGD       0.110400
     11 O6           3.5900     2.7900     5.1260 oh         1 TGD      -0.612800
     12 H1          -0.3610    -0.3340     0.9650 hc         1 TGD       0.063367
     13 H2          -0.3610    -0.6690    -0.7720 hc         1 TGD       0.063367
     14 H3          -0.3610     1.0030    -0.1930 hc         1 TGD       0.063367
     15 H4           1.8150    -0.7230     1.9780 h1         1 TGD       0.079700
     16 H5           2.6360     2.1160     1.2610 h1         1 TGD       0.056700
     17 H6           3.7050    -1.2850     1.0060 ho         1 TGD       0.415000
     18 H7           0.6610     2.6090     1.8420 ho         1 TGD       0.404000
     19 H8           4.0070     1.2160     3.0690 h1         1 TGD       0.064700
     20 H9           3.1300     0.0510     4.6720 ho         1 TGD       0.413000
     21 H10          1.7430     2.8880     4.2160 h1         1 TGD       0.031700
     22 H11          3.0900     3.5380     3.2720 h1         1 TGD       0.031700
     23 H12          3.5860     3.6650     5.4790 ho         1 TGD       0.407000
@<TRIPOS>BOND
     1     9     8 1
     2    11    10 1
     3     8    10 1
     4     8     4 1
     5     7     4 1
     6     4     3 1
     7     3     2 1
     8     3     6 1
     9     1     2 1
    10     2     5 2
    11     1    12 1
    12     1    13 1
    13     1    14 1
    14     3    15 1
    15     4    16 1
    16     6    17 1
    17     7    18 1
    18     8    19 1
    19     9    20 1
    20    10    21 1
    21    10    22 1
    22    11    23 1
@<TRIPOS>SUBSTRUCTURE
     1 TGD         1 TEMP              0 ****  ****    0 ROOT
