@<TRIPOS>MOLECULE
molecule
   66    69     1     0     0
SMALL
bcc


@<TRIPOS>ATOM
      1 C1           0.0000     0.0000     0.0000 c3         1 TGE       0.121800
      2 N1           1.4700     0.0000     0.0000 n3         1 TGE      -0.724600
      3 O1           0.0360    -1.2330     2.0770 os         1 TGE      -0.424600
      4 C2          -0.5060    -1.2330     0.7530 c3         1 TGE       0.139400
      5 N2           7.2290     3.3750    -3.0590 n          1 TGE      -0.325000
      6 C3           1.4650    -1.2330     2.1140 c3         1 TGE       0.139400
      7 N3           6.1870     1.2260    -1.6110 nc         1 TGE      -0.655100
      8 C4           1.9910     0.0000     1.3750 c3         1 TGE       0.121800
      9 N4          13.5450     2.3860    -3.5660 nb         1 TGE      -0.775000
     10 O4           6.3940     4.0710    -5.7400 os         1 TGE      -0.415600
     11 C5           7.5040     1.2740    -1.8890 ca         1 TGE       0.013100
     12 N5           9.6470     0.3040    -1.7330 nb         1 TGE      -0.707000
     13 C6           8.0440     2.3530    -2.6190 ca         1 TGE       0.035600
     14 N6           4.0300     2.1080    -1.7140 nu         1 TGE      -0.846200
     15 C7           5.9070     3.3230    -2.7760 c          1 TGE       0.576200
     16 C8           5.3810     2.1780    -2.0110 cd         1 TGE       0.626200
     17 C9          11.6450     1.3000    -2.6950 cp         1 TGE      -0.311800
     18 C10         12.2500     2.3870    -3.3200 ca         1 TGE       0.471200
     19 C11         14.3160     1.3620    -3.2310 ca         1 TGE       0.663600
     20 C12         13.7850     0.2420    -2.6030 ca         1 TGE      -0.275300
     21 C13         12.4310     0.2020    -2.3280 ca         1 TGE      -0.023000
     22 C14          8.3630     0.2530    -1.4600 ca         1 TGE       0.476200
     23 C15         10.1880     1.3060    -2.4200 cp         1 TGE       0.505800
     24 C16          9.4090     2.3610    -2.8850 ca         1 TGE      -0.287300
     25 C17         16.1320     2.5870    -4.1510 c3         1 TGE       0.137700
     26 C19          7.7510     4.1800    -5.3070 c3         1 TGE       0.118400
     27 C20          6.2480     3.7720    -7.1300 c3         1 TGE       0.137400
     28 C21          4.7620     3.6780    -7.4790 c3         1 TGE      -0.081400
     29 C22          4.6060     3.3590    -8.9670 c3         1 TGE      -0.092100
     30 C23          3.5050     0.9720    -0.9530 c3         1 TGE       0.239800
     31 C24          1.9960     1.1400    -0.7630 c3         1 TGE       0.142800
     32 H1          -0.3600     0.8950     0.4920 h1         1 TGE       0.045200
     33 H1A         -0.3600    -0.0280    -1.0210 h1         1 TGE       0.045200
     34 H2          -0.1870    -2.1290     0.2330 h1         1 TGE       0.054950
     35 H2A         -1.5870    -1.2050     0.8060 h1         1 TGE       0.054950
     36 H3           1.8380    -2.1290     1.6320 h1         1 TGE       0.054950
     37 H3A          1.7990    -1.2050     3.1440 h1         1 TGE       0.054950
     38 H4           1.6590     0.8960     1.8860 h1         1 TGE       0.045200
     39 H4A          3.0740    -0.0290     1.3500 h1         1 TGE       0.045200
     40 H10         11.6510     3.2420    -3.6080 h4         1 TGE       0.020100
     41 H12         14.4240    -0.5890    -2.3340 ha         1 TGE       0.154000
     42 H13         11.9890    -0.6590    -1.8400 ha         1 TGE       0.167000
     43 H14          7.9650    -0.5830    -0.8980 h4         1 TGE       0.044100
     44 H16          9.8580     3.1730    -3.4430 ha         1 TGE       0.141000
     45 H17         15.9290     3.4500    -3.5290 h1         1 TGE       0.046367
     46 H17A        17.2020     2.4840    -4.2870 h1         1 TGE       0.046367
     47 H17B        15.6560     2.7150    -5.1150 h1         1 TGE       0.046367
     48 H18          7.1980     5.3900    -3.6190 h1         1 TGE       0.079700
     49 H18A         8.8100     4.6710    -3.5020 h1         1 TGE       0.079700
     50 H19          8.2640     3.2430    -5.4880 h1         1 TGE       0.033200
     51 H19A         8.2430     4.9720    -5.8580 h1         1 TGE       0.033200
     52 H20          6.7080     4.5570    -7.7180 h1         1 TGE       0.022200
     53 H20A         6.7310     2.8270    -7.3480 h1         1 TGE       0.022200
     54 H21          4.2790     4.6230    -7.2600 hc         1 TGE       0.054700
     55 H21A         4.3020     2.8930    -6.8910 hc         1 TGE       0.054700
     56 H22          5.0700     4.1420    -9.5550 hc         1 TGE       0.035367
     57 H22A         5.0850     2.4120    -9.1850 hc         1 TGE       0.035367
     58 H22B         3.5540     3.2960    -9.2150 hc         1 TGE       0.035367
     59 HN6          3.4120     2.8300    -2.0270 hn         1 TGE       0.463800
     60 H23          3.7010     0.0540    -1.4940 h1         1 TGE       0.062200
     61 H23A         3.9890     0.9320     0.0150 h1         1 TGE       0.062200
     62 H24          1.8000     2.0580    -0.2220 h1         1 TGE       0.040200
     63 H24A         1.5130     1.1810    -1.7310 h1         1 TGE       0.040200
     64 C18          7.7860     4.5010    -3.8120 c3         1 TGE       0.101000
     65 O2          15.6440     1.4100    -3.5050 os         1 TGE      -0.440100
     66 O3           5.1620     4.2100    -3.1510 o          1 TGE      -0.608500
@<TRIPOS>BOND
     1     1     2 1
     2     1     4 1
     3     1    32 1
     4     1    33 1
     5     2     8 1
     6     2    31 1
     7     3     4 1
     8     3     6 1
     9     4    34 1
    10     4    35 1
    11     5    13 1
    12     5    15 1
    13     5    64 1
    14    65    19 1
    15    65    25 1
    16     6     8 1
    17     6    36 1
    18     6    37 1
    19     7    11 1
    20     7    16 2
    21    66    15 2
    22     8    38 1
    23     8    39 1
    24     9    18 ar
    25     9    19 ar
    26    10    26 1
    27    10    27 1
    28    11    13 ar
    29    11    22 ar
    30    12    22 ar
    31    12    23 ar
    32    13    24 ar
    33    14    16 1
    34    14    30 1
    35    14    59 1
    36    15    16 1
    37    17    18 ar
    38    17    21 ar
    39    17    23 1
    40    18    40 1
    41    19    20 ar
    42    20    21 ar
    43    20    41 1
    44    21    42 1
    45    22    43 1
    46    23    24 ar
    47    24    44 1
    48    25    45 1
    49    25    46 1
    50    25    47 1
    51    64    26 1
    52    64    48 1
    53    64    49 1
    54    26    50 1
    55    26    51 1
    56    27    28 1
    57    27    52 1
    58    27    53 1
    59    28    29 1
    60    28    54 1
    61    28    55 1
    62    29    56 1
    63    29    57 1
    64    29    58 1
    65    30    31 1
    66    30    60 1
    67    30    61 1
    68    31    62 1
    69    31    63 1
@<TRIPOS>SUBSTRUCTURE
     1 TGE         1 TEMP              0 ****  ****    0 ROOT
