@<TRIPOS>MOLECULE
TGE
   66    69     1     0     0
SMALL
bcc


@<TRIPOS>ATOM
      1 C1           0.0000     0.0000     0.0000 c3         1 TGE       0.106300
      2 N1           1.4700     0.0000     0.0000 n3         1 TGE      -0.530600
      3 O1           0.0360    -1.2330     2.0770 os         1 TGE      -0.411600
      4 C2          -0.5060    -1.2330     0.7530 c3         1 TGE       0.215900
      5 N2           7.2290     3.3750    -3.0590 n          1 TGE       0.096000
      6 C3           1.4650    -1.2330     2.1140 c3         1 TGE       0.215900
      7 N3           6.1870     1.2260    -1.6110 nc         1 TGE      -0.561100
      8 C4           1.9910     0.0000     1.3750 c3         1 TGE       0.106300
      9 N4          13.5450     2.3860    -3.5660 nb         1 TGE      -0.668000
     10 O4           6.3940     4.0710    -5.7400 os         1 TGE      -0.400600
     11 C5           7.5040     1.2740    -1.8890 ca         1 TGE      -0.008900
     12 N5           9.6470     0.3040    -1.7330 nb         1 TGE      -0.591000
     13 C6           8.0440     2.3530    -2.6190 ca         1 TGE      -0.118400
     14 N6           4.0300     2.1080    -1.7140 nu         1 TGE      -0.410200
     15 C7           5.9070     3.3230    -2.7760 c          1 TGE       0.493200
     16 C8           5.3810     2.1780    -2.0110 cd         1 TGE       0.422200
     17 C9          11.6450     1.3000    -2.6950 cp         1 TGE      -0.317800
     18 C10         12.2500     2.3870    -3.3200 ca         1 TGE       0.450200
     19 C11         14.3160     1.3620    -3.2310 ca         1 TGE       0.628600
     20 C12         13.7850     0.2420    -2.6030 ca         1 TGE      -0.256300
     21 C13         12.4310     0.2020    -2.3280 ca         1 TGE       0.005000
     22 C14          8.3630     0.2530    -1.4600 ca         1 TGE       0.448200
     23 C15         10.1880     1.3060    -2.4200 cp         1 TGE       0.465800
     24 C16          9.4090     2.3610    -2.8850 ca         1 TGE      -0.263300
     25 C17         16.1320     2.5870    -4.1510 c3         1 TGE       0.256700
     26 C19          7.7510     4.1800    -5.3070 c3         1 TGE       0.191400
     27 C20          6.2480     3.7720    -7.1300 c3         1 TGE       0.210400
     28 C21          4.7620     3.6780    -7.4790 c3         1 TGE      -0.034400
     29 C22          4.6060     3.3590    -8.9670 c3         1 TGE       0.010900
     30 C23          3.5050     0.9720    -0.9530 c3         1 TGE       0.146800
     31 C24          1.9960     1.1400    -0.7630 c3         1 TGE       0.142800
     32 H1          -0.3600     0.8950     0.4920 h1         1 TGE       0.019700
     33 H1A         -0.3600    -0.0280    -1.0210 h1         1 TGE       0.019700
     34 H2          -0.1870    -2.1290     0.2330 h1         1 TGE       0.013700
     35 H2A         -1.5870    -1.2050     0.8060 h1         1 TGE       0.013700
     36 H3           1.8380    -2.1290     1.6320 h1         1 TGE       0.013700
     37 H3A          1.7990    -1.2050     3.1440 h1         1 TGE       0.013700
     38 H4           1.6590     0.8960     1.8860 h1         1 TGE       0.019700
     39 H4A          3.0740    -0.0290     1.3500 h1         1 TGE       0.019700
     40 H10         11.6510     3.2420    -3.6080 h4         1 TGE      -0.020900
     41 H12         14.4240    -0.5890    -2.3340 ha         1 TGE       0.127000
     42 H13         11.9890    -0.6590    -1.8400 ha         1 TGE       0.131000
     43 H14          7.9650    -0.5830    -0.8980 h4         1 TGE      -0.005900
     44 H16          9.8580     3.1730    -3.4430 ha         1 TGE       0.133000
     45 H17         15.9290     3.4500    -3.5290 h1         1 TGE      -0.000633
     46 H17A        17.2020     2.4840    -4.2870 h1         1 TGE      -0.000633
     47 H17B        15.6560     2.7150    -5.1150 h1         1 TGE      -0.000633
     48 H18          7.1980     5.3900    -3.6190 h1         1 TGE       0.051700
     49 H18A         8.8100     4.6710    -3.5020 h1         1 TGE       0.051700
     50 H19          8.2640     3.2430    -5.4880 h1         1 TGE      -0.000300
     51 H19A         8.2430     4.9720    -5.8580 h1         1 TGE      -0.000300
     52 H20          6.7080     4.5570    -7.7180 h1         1 TGE      -0.010300
     53 H20A         6.7310     2.8270    -7.3480 h1         1 TGE      -0.010300
     54 H21          4.2790     4.6230    -7.2600 hc         1 TGE       0.023200
     55 H21A         4.3020     2.8930    -6.8910 hc         1 TGE       0.023200
     56 H22          5.0700     4.1420    -9.5550 hc         1 TGE       0.001033
     57 H22A         5.0850     2.4120    -9.1850 hc         1 TGE       0.001033
     58 H22B         3.5540     3.2960    -9.2150 hc         1 TGE       0.001033
     59 HN6          3.4120     2.8300    -2.0270 hn         1 TGE       0.309800
     60 H23          3.7010     0.0540    -1.4940 h1         1 TGE       0.036700
     61 H23A         3.9890     0.9320     0.0150 h1         1 TGE       0.036700
     62 H24          1.8000     2.0580    -0.2220 h1         1 TGE       0.013700
     63 H24A         1.5130     1.1810    -1.7310 h1         1 TGE       0.013700
     64 C18          7.7860     4.5010    -3.8120 c3         1 TGE       0.011000
     65 O2          15.6440     1.4100    -3.5050 os         1 TGE      -0.430100
     66 O3           5.1620     4.2100    -3.1510 o          1 TGE      -0.658500
@<TRIPOS>BOND
     1     1     2 1   
     2     1     4 1   
     3     1    32 1   
     4     1    33 1   
     5     2     8 1   
     6     2    31 1   
     7     3     4 1   
     8     3     6 1   
     9     4    34 1   
    10     4    35 1   
    11     5    13 1   
    12     5    15 1   
    13     5    64 1   
    14     6     8 1   
    15     6    36 1   
    16     6    37 1   
    17     7    11 1   
    18     7    16 2   
    19     8    38 1   
    20     8    39 1   
    21     9    18 ar  
    22     9    19 ar  
    23    10    26 1   
    24    10    27 1   
    25    11    13 ar  
    26    11    22 ar  
    27    12    22 ar  
    28    12    23 ar  
    29    13    24 ar  
    30    14    16 1   
    31    14    30 1   
    32    14    59 1   
    33    15    16 1   
    34    15    66 2   
    35    17    18 ar  
    36    17    21 ar  
    37    17    23 1   
    38    18    40 1   
    39    19    20 ar  
    40    19    65 1   
    41    20    21 ar  
    42    20    41 1   
    43    21    42 1   
    44    22    43 1   
    45    23    24 ar  
    46    24    44 1   
    47    25    45 1   
    48    25    46 1   
    49    25    47 1   
    50    25    65 1   
    51    26    50 1   
    52    26    51 1   
    53    26    64 1   
    54    27    28 1   
    55    27    52 1   
    56    27    53 1   
    57    28    29 1   
    58    28    54 1   
    59    28    55 1   
    60    29    56 1   
    61    29    57 1   
    62    29    58 1   
    63    30    31 1   
    64    30    60 1   
    65    30    61 1   
    66    31    62 1   
    67    31    63 1   
    68    48    64 1   
    69    49    64 1   
@<TRIPOS>SUBSTRUCTURE
     1 TGE         1 TEMP              0 ****  ****    0 ROOT
