@<TRIPOS>MOLECULE
TGG
   46    45     1     0     0
SMALL
bcc


@<TRIPOS>ATOM
      1 OC1          0.0000     0.0000     0.0000 o          1 TGG      -0.842800
      2 CO1          1.2080     0.0000     0.0000 c          1 TGG       0.970600
      3 OT1          1.8780    -0.0010    -1.1630 o          1 TGG      -0.842800
      4 CA1          1.9630     0.0000     1.3040 c3         1 TGG      -0.204500
      5 NN1          1.0810     0.4740     2.3790 nz         1 TGG       0.076400
      6 CB1          2.4350    -1.4210     1.6210 c3         1 TGG      -0.006400
      7 CG1          3.3050    -1.4000     2.8780 c3         1 TGG      -0.123400
      8 CD1          3.7710    -2.8000     3.1900 c          1 TGG       0.570100
      9 OE1          3.4390    -3.7220     2.4760 o          1 TGG      -0.676100
     10 NN2          4.5560    -3.0250     4.2610 ns         1 TGG      -0.090900
     11 CA2          5.0080    -4.3850     4.5650 c3         1 TGG      -0.042300
     12 CO2          3.9520    -5.0990     5.3690 c          1 TGG       0.548100
     13 OC2          2.9230    -4.5270     5.6610 o          1 TGG      -0.740100
     14 NN3          4.1510    -6.3710     5.7650 ns         1 TGG      -0.133900
     15 CA3          3.1240    -7.0650     6.5470 c3         1 TGG      -0.071000
     16 CO3          3.5890    -8.4640     6.8580 c          1 TGG       0.971600
     17 OC3          2.8050    -9.2880     7.5700 o          1 TGG      -0.897300
     18 OT3          4.6670    -8.8440     6.4670 o          1 TGG      -0.897300
     19 CB2          6.3070    -4.3230     5.3700 c3         1 TGG       0.039700
     20 SG2          7.5780    -3.4650     4.4020 ss         1 TGG      -0.417200
     21 CD2          8.9660    -3.5380     5.5690 c3         1 TGG       0.025400
     22 CE2          9.3740    -4.9740     5.7750 c          1 TGG       0.974600
     23 OE2          9.9740    -5.6510     4.7840 o          1 TGG      -0.901800
     24 OF2          9.1590    -5.5170     6.8330 o          1 TGG      -0.901800
     25 CF2         10.1490    -2.7490     5.0040 c3         1 TGG      -0.100400
     26 CH2          9.7810    -1.2910     4.9130 c          1 TGG       0.976600
     27 OI2         10.6710    -0.4020     4.4430 o          1 TGG      -0.929800
     28 OJ2          8.6860    -0.9200     5.2630 o          1 TGG      -0.929800
     29 HA1          2.8210     0.6560     1.2240 hx         1 TGG       0.087700
     30 HN11         0.5010     1.2130     2.0330 hn         1 TGG       0.208800
     31 HN12         0.5060    -0.2810     2.6960 hn         1 TGG       0.208800
     32 HB11         1.5750    -2.0580     1.7880 hc         1 TGG       0.067700
     33 HB12         3.0120    -1.8040     0.7880 hc         1 TGG       0.067700
     34 HG11         2.7270    -1.0180     3.7110 hc         1 TGG       0.014700
     35 HG12         4.1650    -0.7620     2.7120 hc         1 TGG       0.014700
     36 HN2          4.8150    -2.2670     4.8600 hn         1 TGG       0.182500
     37 HA2          5.1820    -4.9220     3.6400 h1         1 TGG       0.077700
     38 HN3          4.9850    -6.8540     5.4950 hn         1 TGG       0.215500
     39 HA31         2.9500    -6.5280     7.4720 h1         1 TGG       0.014200
     40 HA32         2.2030    -7.1090     5.9770 h1         1 TGG       0.014200
     41 HB21         6.1330    -3.7860     6.2950 h1         1 TGG       0.058700
     42 HB22         6.6410    -5.3290     5.5940 h1         1 TGG       0.058700
     43 HD2          8.6640    -3.1080     6.5160 h1         1 TGG       0.042700
     44 HF21        11.0050    -2.8650     5.6580 hc         1 TGG       0.026200
     45 HF22        10.3940    -3.1220     4.0180 hc         1 TGG       0.026200
     46 HN13         1.6360     0.8120     3.1400 hn         1 TGG       0.208800
@<TRIPOS>BOND
     1     1     2 1   
     2     2     3 1   
     3     2     4 1   
     4     4     5 1   
     5     4     6 1   
     6     4    29 1   
     7     5    30 1   
     8     5    31 1   
     9     5    46 1   
    10     6     7 1   
    11     6    32 1   
    12     6    33 1   
    13     7     8 1   
    14     7    34 1   
    15     7    35 1   
    16     8     9 2   
    17     8    10 1   
    18    10    11 1   
    19    10    36 1   
    20    11    12 1   
    21    11    19 1   
    22    11    37 1   
    23    12    13 2   
    24    12    14 1   
    25    14    15 1   
    26    14    38 1   
    27    15    16 1   
    28    15    39 1   
    29    15    40 1   
    30    16    17 1   
    31    16    18 1   
    32    19    20 1   
    33    19    41 1   
    34    19    42 1   
    35    20    21 1   
    36    21    22 1   
    37    21    25 1   
    38    21    43 1   
    39    22    23 1   
    40    22    24 1   
    41    25    26 1   
    42    25    44 1   
    43    25    45 1   
    44    26    27 1   
    45    26    28 1   
@<TRIPOS>SUBSTRUCTURE
     1 TGG         1 TEMP              0 ****  ****    0 ROOT
