@<TRIPOS>MOLECULE
molecule
   23    22     1     0     0
SMALL
bcc


@<TRIPOS>ATOM
      1 C1           0.0000     0.0000     0.0000 c3         1 TGJ      -0.188100
      2 C2           1.5070     0.0000     0.0000 c          1 TGJ       0.530100
      3 C6           2.9940     2.8180    -3.8230 c3         1 TGJ       0.111400
      4 O2           2.1110     0.0000     1.0460 o          1 TGJ      -0.508100
      5 C3           2.2600     0.0020    -1.3050 c3         1 TGJ       0.045100
      6 O3           3.5950    -0.4590    -1.0850 oh         1 TGJ      -0.589800
      7 C4           2.2980     1.4230    -1.8700 c3         1 TGJ       0.165100
      8 O4           0.9630     1.8830    -2.0900 oh         1 TGJ      -0.592800
      9 C5           3.0630     1.4250    -3.1950 c3         1 TGJ       0.142100
     10 O5           2.4760     0.4720    -4.0850 oh         1 TGJ      -0.595800
     11 H1          -0.3610    -0.7110     0.7330 hc         1 TGJ       0.063367
     12 H2          -0.3610     0.9900     0.2500 hc         1 TGJ       0.063367
     13 H3          -0.3610    -0.2790    -0.9830 hc         1 TGJ       0.063367
     14 H4           1.9680     3.0460    -4.0840 h1         1 TGJ       0.032200
     15 H5           3.3570     3.5520    -3.1140 h1         1 TGJ       0.032200
     16 H6           1.7640    -0.6540    -2.0100 h1         1 TGJ       0.078700
     17 H7           3.6020    -1.4010    -1.0570 ho         1 TGJ       0.414000
     18 H8           2.7950     2.0790    -1.1660 h1         1 TGJ       0.056700
     19 H9           0.8540     2.7320    -1.6960 ho         1 TGJ       0.404000
     20 H10          4.0980     1.1610    -3.0150 h1         1 TGJ       0.064700
     21 H11          3.1380     0.1380    -4.6680 ho         1 TGJ       0.412000
     22 H12          3.8650     3.7400    -5.3120 ho         1 TGJ       0.407000
     23 O6           3.8030     2.8530    -4.9990 oh         1 TGJ      -0.612800
@<TRIPOS>BOND
     1     4     2 2
     2     6     5 1
     3     2     5 1
     4     2     1 1
     5     5     7 1
     6     7     8 1
     7     7     9 1
     8     9     3 1
     9     9    10 1
    10     3    23 1
    11     1    11 1
    12     1    12 1
    13     1    13 1
    14     3    14 1
    15     3    15 1
    16     5    16 1
    17     6    17 1
    18     7    18 1
    19     8    19 1
    20     9    20 1
    21    10    21 1
    22    23    22 1
@<TRIPOS>SUBSTRUCTURE
     1 TGJ         1 TEMP              0 ****  ****    0 ROOT
