@<TRIPOS>MOLECULE
molecule
  173   172     1     0     0
SMALL
bcc


@<TRIPOS>ATOM
      1 CA1          0.0000     0.0000     0.0000 c          1 TGL       0.637100
      2 CA2          1.5070     0.0000     0.0000 c3         1 TGL      -0.121900
      3 CA3          2.0170     0.0000     1.4420 c3         1 TGL      -0.073400
      4 CA4          3.5470    -0.0000     1.4430 c3         1 TGL      -0.083400
      5 CA5          4.0570    -0.0000     2.8850 c3         1 TGL      -0.079900
      6 CA6          5.5860     0.0000     2.8860 c3         1 TGL      -0.082400
      7 CA7          6.0970    -0.0010     4.3280 c3         1 TGL      -0.081400
      8 CA8          7.6260    -0.0010     4.3290 c3         1 TGL      -0.081400
      9 CA9          8.1360    -0.0000     5.7700 c3         1 TGL      -0.081400
     10 OA1         -0.6040     0.0010     1.0460 o          1 TGL      -0.551000
     11 CB1         -0.9750     1.1500    -3.9430 c          1 TGL       0.639100
     12 CB2         -0.4710     2.3790    -4.6530 c3         1 TGL      -0.122400
     13 CB3          0.8750     2.0740    -5.3090 c3         1 TGL      -0.072400
     14 CB4          1.3860     3.3210    -6.0320 c3         1 TGL      -0.084400
     15 CB5          2.7340     3.0170    -6.6880 c3         1 TGL      -0.080400
     16 CB6          3.2450     4.2640    -7.4110 c3         1 TGL      -0.081400
     17 CB7          4.5920     3.9590    -8.0670 c3         1 TGL      -0.081400
     18 CB8          5.1040     5.2070    -8.7890 c3         1 TGL      -0.081400
     19 CB9          6.4510     4.9010    -9.4440 c3         1 TGL      -0.081400
     20 C10          6.9620     6.1490   -10.1680 c3         1 TGL      -0.082400
     21 C11          8.3090     5.8430   -10.8230 c3         1 TGL      -0.081400
     22 C12          8.8200     7.0910   -11.5450 c3         1 TGL      -0.082400
     23 C13         10.1680     6.7860   -12.2020 c3         1 TGL      -0.082400
     24 C14         10.6790     8.0340   -12.9240 c3         1 TGL      -0.081400
     25 OB1         -0.3220     0.1340    -3.9590 o          1 TGL      -0.539000
     26 OG1         -0.6710     0.0000    -1.1620 os         1 TGL      -0.430900
     27 CG1         -2.1220     0.0000    -1.1630 c3         1 TGL       0.149400
     28 CG2         -2.6310     0.0000    -2.6050 c3         1 TGL       0.154100
     29 OG2         -2.1470     1.1840    -3.2910 os         1 TGL      -0.429900
     30 CG3         -4.1620     0.0000    -2.6050 c3         1 TGL       0.149400
     31 OG3         -4.6460     0.0000    -3.9740 os         1 TGL      -0.430900
     32 CC1         -5.9660     0.0000    -4.2190 c          1 TGL       0.637100
     33 CC2         -6.4680    -0.0000    -5.6410 c3         1 TGL      -0.121900
     34 CC3         -7.9970     0.0010    -5.6410 c3         1 TGL      -0.073400
     35 CC4         -8.5070     0.0010    -7.0840 c3         1 TGL      -0.083400
     36 CC5        -10.0370    -0.0000    -7.0830 c3         1 TGL      -0.079900
     37 CC6        -10.5470     0.0010    -8.5260 c3         1 TGL      -0.082400
     38 CC7        -12.0770     0.0010    -8.5270 c3         1 TGL      -0.081400
     39 CC8        -12.5870     0.0010    -9.9690 c3         1 TGL      -0.081400
     40 CC9        -14.1170     0.0010    -9.9690 c3         1 TGL      -0.081400
     41 C15        -14.6270     0.0010   -11.4110 c3         1 TGL      -0.081400
     42 C16        -16.1560     0.0010   -11.4120 c3         1 TGL      -0.082400
     43 C17        -16.6660     0.0010   -12.8540 c3         1 TGL      -0.081900
     44 C18        -18.1970     0.0010   -12.8540 c3         1 TGL      -0.082400
     45 C19        -18.7070     0.0010   -14.2970 c3         1 TGL      -0.082400
     46 OC1         -6.7500     0.0010    -3.3010 o          1 TGL      -0.551000
     47 C20          9.6670    -0.0010     5.7710 c3         1 TGL      -0.081400
     48 C21         10.1770    -0.0010     7.2130 c3         1 TGL      -0.082400
     49 C22         11.7060    -0.0010     7.2140 c3         1 TGL      -0.081900
     50 C23         12.2160    -0.0000     8.6560 c3         1 TGL      -0.082400
     51 C24         13.7460    -0.0010     8.6560 c3         1 TGL      -0.082400
     52 C25         14.2560    -0.0010    10.0990 c3         1 TGL      -0.082400
     53 C26         15.7860    -0.0010    10.1000 c3         1 TGL      -0.081400
     54 C27         16.2960    -0.0010    11.5420 c3         1 TGL      -0.084400
     55 C28         17.8260    -0.0010    11.5420 c3         1 TGL      -0.092100
     56 C29         12.0260     7.7290   -13.5810 c3         1 TGL      -0.082400
     57 C30         12.5370     8.9760   -14.3030 c3         1 TGL      -0.081400
     58 C31         13.8850     8.6710   -14.9590 c3         1 TGL      -0.084400
     59 C32         14.3960     9.9190   -15.6810 c3         1 TGL      -0.092100
     60 C33        -20.2360     0.0010   -14.2970 c3         1 TGL      -0.082400
     61 C34        -20.7470     0.0010   -15.7400 c3         1 TGL      -0.081400
     62 C35        -22.2760     0.0010   -15.7400 c3         1 TGL      -0.084400
     63 C36        -22.7860     0.0010   -17.1820 c3         1 TGL      -0.092100
     64 HA21         1.8680    -0.8850    -0.5110 hc         1 TGL       0.073950
     65 HA22         1.8680     0.8850    -0.5110 hc         1 TGL       0.073950
     66 HA31         1.6550    -0.8840     1.9530 hc         1 TGL       0.058700
     67 HA32         1.6560     0.8850     1.9530 hc         1 TGL       0.058700
     68 HA41         3.9080    -0.8850     0.9320 hc         1 TGL       0.040950
     69 HA42         3.9090     0.8840     0.9320 hc         1 TGL       0.040950
     70 HA51         3.6960     0.8840     3.3960 hc         1 TGL       0.044450
     71 HA52         3.6960    -0.8850     3.3960 hc         1 TGL       0.044450
     72 HA61         5.9480    -0.8840     2.3740 hc         1 TGL       0.040700
     73 HA62         5.9480     0.8850     2.3760 hc         1 TGL       0.040700
     74 HA71         5.7360     0.8830     4.8390 hc         1 TGL       0.041700
     75 HA72         5.7360    -0.8860     4.8380 hc         1 TGL       0.041700
     76 HA81         7.9870     0.8840     3.8180 hc         1 TGL       0.040700
     77 HA82         7.9870    -0.8850     3.8180 hc         1 TGL       0.040700
     78 HA91         7.7750    -0.8840     6.2810 hc         1 TGL       0.041700
     79 HA92         7.7760     0.8850     6.2810 hc         1 TGL       0.041700
     80 HB21        -1.1850     2.6750    -5.4120 hc         1 TGL       0.071200
     81 HB22        -0.3500     3.1850    -3.9380 hc         1 TGL       0.071200
     82 HB31         1.5890     1.7800    -4.5490 hc         1 TGL       0.058200
     83 HB32         0.7550     1.2680    -6.0220 hc         1 TGL       0.058200
     84 HB41         0.6720     3.6150    -6.7920 hc         1 TGL       0.040700
     85 HB42         1.5060     4.1280    -5.3190 hc         1 TGL       0.040700
     86 HB51         3.4470     2.7220    -5.9280 hc         1 TGL       0.043700
     87 HB52         2.6130     2.2100    -7.4020 hc         1 TGL       0.043700
     88 HB61         3.3650     5.0700    -6.6970 hc         1 TGL       0.040700
     89 HB62         2.5320     4.5580    -8.1710 hc         1 TGL       0.040700
     90 HB71         4.4720     3.1530    -8.7810 hc         1 TGL       0.041700
     91 HB72         5.3060     3.6640    -7.3070 hc         1 TGL       0.041700
     92 HB81         5.2240     6.0130    -8.0750 hc         1 TGL       0.040700
     93 HB82         4.3910     5.5010    -9.5490 hc         1 TGL       0.040700
     94 HB91         7.1640     4.6080    -8.6840 hc         1 TGL       0.041700
     95 HB92         6.3310     4.0940   -10.1570 hc         1 TGL       0.041700
     96 H101         7.0820     6.9560    -9.4550 hc         1 TGL       0.040700
     97 H102         6.2480     6.4420   -10.9290 hc         1 TGL       0.040700
     98 H111         8.1890     5.0370   -11.5370 hc         1 TGL       0.040700
     99 H112         9.0220     5.5490   -10.0630 hc         1 TGL       0.040700
    100 H121         8.9410     7.8970   -10.8320 hc         1 TGL       0.040700
    101 H122         8.1070     7.3860   -12.3060 hc         1 TGL       0.040700
    102 H131        10.8810     6.4910   -11.4420 hc         1 TGL       0.040700
    103 H132        10.0470     5.9800   -12.9160 hc         1 TGL       0.040700
    104 H141        10.8000     8.8390   -12.2100 hc         1 TGL       0.040700
    105 H142         9.9650     8.3290   -13.6840 hc         1 TGL       0.040700
    106 HG11        -2.4830    -0.8850    -0.6530 h1         1 TGL       0.061450
    107 HG12        -2.4840     0.8840    -0.6530 h1         1 TGL       0.061450
    108 HG2         -2.2710    -0.8850    -3.1150 h1         1 TGL       0.087700
    109 HG31        -4.5230    -0.8840    -2.0950 h1         1 TGL       0.061450
    110 HG32        -4.5230     0.8850    -2.0950 h1         1 TGL       0.061450
    111 HC21        -6.1060     0.8840    -6.1520 hc         1 TGL       0.073950
    112 HC22        -6.1070    -0.8850    -6.1510 hc         1 TGL       0.073950
    113 HC31        -8.3590    -0.8840    -5.1300 hc         1 TGL       0.058700
    114 HC32        -8.3580     0.8850    -5.1310 hc         1 TGL       0.058700
    115 HC41        -8.1460    -0.8840    -7.5940 hc         1 TGL       0.040950
    116 HC42        -8.1470     0.8850    -7.5940 hc         1 TGL       0.040950
    117 HC51       -10.3980    -0.8850    -6.5730 hc         1 TGL       0.044450
    118 HC52       -10.3980     0.8840    -6.5720 hc         1 TGL       0.044450
    119 HC61       -10.1860    -0.8830    -9.0370 hc         1 TGL       0.040700
    120 HC62       -10.1860     0.8860    -9.0360 hc         1 TGL       0.040700
    121 HC71       -12.4390     0.8850    -8.0160 hc         1 TGL       0.041700
    122 HC72       -12.4380    -0.8840    -8.0160 hc         1 TGL       0.041700
    123 HC81       -12.2270    -0.8840   -10.4800 hc         1 TGL       0.040700
    124 HC82       -12.2260     0.8850   -10.4800 hc         1 TGL       0.040700
    125 HC91       -14.4780    -0.8840    -9.4580 hc         1 TGL       0.041700
    126 HC92       -14.4780     0.8850    -9.4580 hc         1 TGL       0.041700
    127 H151       -14.2660    -0.8840   -11.9220 hc         1 TGL       0.040700
    128 H152       -14.2660     0.8850   -11.9220 hc         1 TGL       0.040700
    129 H161       -16.5170    -0.8840   -10.9010 hc         1 TGL       0.040700
    130 H162       -16.5180     0.8850   -10.9010 hc         1 TGL       0.040700
    131 H171       -16.3050     0.8850   -13.3650 hc         1 TGL       0.040700
    132 H172       -16.3050    -0.8840   -13.3650 hc         1 TGL       0.040700
    133 H181       -18.5580    -0.8840   -12.3440 hc         1 TGL       0.040700
    134 H182       -18.5580     0.8850   -12.3440 hc         1 TGL       0.040700
    135 H191       -18.3460     0.8850   -14.8080 hc         1 TGL       0.040700
    136 H192       -18.3460    -0.8840   -14.8070 hc         1 TGL       0.040700
    137 H201        10.0280     0.8830     5.2600 hc         1 TGL       0.040700
    138 H202        10.0280    -0.8850     5.2610 hc         1 TGL       0.040700
    139 H211         9.8150     0.8840     7.7240 hc         1 TGL       0.040700
    140 H212         9.8160    -0.8850     7.7240 hc         1 TGL       0.040700
    141 H221        12.0670     0.8840     6.7030 hc         1 TGL       0.040700
    142 H222        12.0670    -0.8850     6.7040 hc         1 TGL       0.040700
    143 H231        11.8560     0.8850     9.1660 hc         1 TGL       0.040700
    144 H232        11.8550    -0.8840     9.1670 hc         1 TGL       0.040700
    145 H241        14.1070     0.8830     8.1450 hc         1 TGL       0.040700
    146 H242        14.1060    -0.8850     8.1460 hc         1 TGL       0.040700
    147 H251        13.8950     0.8840    10.6090 hc         1 TGL       0.040700
    148 H252        13.8940    -0.8850    10.6090 hc         1 TGL       0.040700
    149 H261        16.1480     0.8830     9.5890 hc         1 TGL       0.040700
    150 H262        16.1470    -0.8860     9.5890 hc         1 TGL       0.040700
    151 H271        15.9350     0.8830    12.0530 hc         1 TGL       0.039700
    152 H272        15.9350    -0.8860    12.0530 hc         1 TGL       0.039700
    153 H281        18.1870    -0.0010    12.5630 hc         1 TGL       0.032367
    154 H282        18.1870    -0.8850    11.0310 hc         1 TGL       0.032367
    155 H283        18.1860     0.8840    11.0320 hc         1 TGL       0.032367
    156 H291        12.7390     7.4340   -12.8210 hc         1 TGL       0.040700
    157 H292        11.9050     6.9220   -14.2940 hc         1 TGL       0.040700
    158 H301        11.8240     9.2700   -15.0630 hc         1 TGL       0.040700
    159 H302        12.6570     9.7820   -13.5900 hc         1 TGL       0.040700
    160 H311        14.5980     8.3760   -14.1990 hc         1 TGL       0.039700
    161 H312        13.7640     7.8650   -15.6730 hc         1 TGL       0.039700
    162 H321        15.3500     9.7020   -16.1460 hc         1 TGL       0.032367
    163 H322        14.5160    10.7250   -14.9680 hc         1 TGL       0.032367
    164 H323        13.6830    10.2130   -16.4420 hc         1 TGL       0.032367
    165 H331       -20.5970     0.8860   -13.7870 hc         1 TGL       0.040700
    166 H332       -20.5980    -0.8830   -13.7860 hc         1 TGL       0.040700
    167 H341       -20.3850    -0.8830   -16.2510 hc         1 TGL       0.040700
    168 H342       -20.3860     0.8860   -16.2500 hc         1 TGL       0.040700
    169 H351       -22.6370    -0.8840   -15.2290 hc         1 TGL       0.039700
    170 H352       -22.6380     0.8850   -15.2290 hc         1 TGL       0.039700
    171 H361       -22.4250    -0.8840   -17.6930 hc         1 TGL       0.032367
    172 H362       -23.8690     0.0000   -17.1820 hc         1 TGL       0.032367
    173 H363       -22.4260     0.8850   -17.6930 hc         1 TGL       0.032367
@<TRIPOS>BOND
     1     1     2 1
     2     1    10 2
     3     1    26 1
     4     2     3 1
     5     2    64 1
     6     2    65 1
     7     3     4 1
     8     3    66 1
     9     3    67 1
    10     4     5 1
    11     4    68 1
    12     4    69 1
    13     5     6 1
    14     5    70 1
    15     5    71 1
    16     6     7 1
    17     6    72 1
    18     6    73 1
    19     7     8 1
    20     7    74 1
    21     7    75 1
    22     8     9 1
    23     8    76 1
    24     8    77 1
    25     9    47 1
    26     9    78 1
    27     9    79 1
    28    11    12 1
    29    11    25 2
    30    11    29 1
    31    12    13 1
    32    12    80 1
    33    12    81 1
    34    13    14 1
    35    13    82 1
    36    13    83 1
    37    14    15 1
    38    14    84 1
    39    14    85 1
    40    15    16 1
    41    15    86 1
    42    15    87 1
    43    16    17 1
    44    16    88 1
    45    16    89 1
    46    17    18 1
    47    17    90 1
    48    17    91 1
    49    18    19 1
    50    18    92 1
    51    18    93 1
    52    19    20 1
    53    19    94 1
    54    19    95 1
    55    20    21 1
    56    20    96 1
    57    20    97 1
    58    21    22 1
    59    21    98 1
    60    21    99 1
    61    22    23 1
    62    22   100 1
    63    22   101 1
    64    23    24 1
    65    23   102 1
    66    23   103 1
    67    24    56 1
    68    24   104 1
    69    24   105 1
    70    26    27 1
    71    27    28 1
    72    27   106 1
    73    27   107 1
    74    28    29 1
    75    28    30 1
    76    28   108 1
    77    30    31 1
    78    30   109 1
    79    30   110 1
    80    31    32 1
    81    32    33 1
    82    32    46 2
    83    33    34 1
    84    33   111 1
    85    33   112 1
    86    34    35 1
    87    34   113 1
    88    34   114 1
    89    35    36 1
    90    35   115 1
    91    35   116 1
    92    36    37 1
    93    36   117 1
    94    36   118 1
    95    37    38 1
    96    37   119 1
    97    37   120 1
    98    38    39 1
    99    38   121 1
   100    38   122 1
   101    39    40 1
   102    39   123 1
   103    39   124 1
   104    40    41 1
   105    40   125 1
   106    40   126 1
   107    41    42 1
   108    41   127 1
   109    41   128 1
   110    42    43 1
   111    42   129 1
   112    42   130 1
   113    43    44 1
   114    43   131 1
   115    43   132 1
   116    44    45 1
   117    44   133 1
   118    44   134 1
   119    45    60 1
   120    45   135 1
   121    45   136 1
   122    47    48 1
   123    47   137 1
   124    47   138 1
   125    48    49 1
   126    48   139 1
   127    48   140 1
   128    49    50 1
   129    49   141 1
   130    49   142 1
   131    50    51 1
   132    50   143 1
   133    50   144 1
   134    51    52 1
   135    51   145 1
   136    51   146 1
   137    52    53 1
   138    52   147 1
   139    52   148 1
   140    53    54 1
   141    53   149 1
   142    53   150 1
   143    54    55 1
   144    54   151 1
   145    54   152 1
   146    55   153 1
   147    55   154 1
   148    55   155 1
   149    56    57 1
   150    56   156 1
   151    56   157 1
   152    57    58 1
   153    57   158 1
   154    57   159 1
   155    58    59 1
   156    58   160 1
   157    58   161 1
   158    59   162 1
   159    59   163 1
   160    59   164 1
   161    60    61 1
   162    60   165 1
   163    60   166 1
   164    61    62 1
   165    61   167 1
   166    61   168 1
   167    62    63 1
   168    62   169 1
   169    62   170 1
   170    63   171 1
   171    63   172 1
   172    63   173 1
@<TRIPOS>SUBSTRUCTURE
     1 TGL         1 TEMP              0 ****  ****    0 ROOT
