@<TRIPOS>MOLECULE
TGL
  173   172     1     0     0
SMALL
bcc


@<TRIPOS>ATOM
      1 CA1        -1.1480    1.9320    0.8260 c         1 TGL      0.634100
      2 CA2        -0.0270    0.9430    0.8940 c3        1 TGL     -0.127400
      3 CA3         1.1050    1.4660    1.7530 c3        1 TGL     -0.079400
      4 CA4         2.1750    0.4100    1.9320 c3        1 TGL     -0.078900
      5 CA5         3.3200    0.9330    2.7720 c3        1 TGL     -0.079400
      6 CA6         4.3900   -0.1220    2.9570 c3        1 TGL     -0.079400
      7 CA7         5.5370    0.4030    3.7950 c3        1 TGL     -0.079400
      8 CA8         6.6080   -0.6510    3.9800 c3        1 TGL     -0.079400
      9 CA9         7.7550   -0.1260    4.8170 c3        1 TGL     -0.079400
     10 OA1        -1.6010    2.6640    1.7080 o         1 TGL     -0.541000
     11 CB1        -1.6300    3.2830   -3.7890 c         1 TGL      0.643100
     12 CB2        -0.8840    4.4040   -4.4480 c3        1 TGL     -0.127400
     13 CB3         0.4700    3.9400   -4.9410 c3        1 TGL     -0.079400
     14 CB4         1.1560    5.0330   -5.7310 c3        1 TGL     -0.079400
     15 CB5         2.5150    4.5800   -6.2200 c3        1 TGL     -0.078400
     16 CB6         3.2010    5.6660   -7.0200 c3        1 TGL     -0.079400
     17 CB7         4.5570    5.2110   -7.5140 c3        1 TGL     -0.079400
     18 CB8         5.2400    6.2960   -8.3190 c3        1 TGL     -0.079400
     19 CB9         6.5940    5.8390   -8.8180 c3        1 TGL     -0.079400
     20 C10         7.2760    6.9220   -9.6260 c3        1 TGL     -0.079400
     21 C11         8.6280    6.4640  -10.1290 c3        1 TGL     -0.079400
     22 C12         9.3090    7.5470  -10.9380 c3        1 TGL     -0.079400
     23 C13        10.6600    7.0880  -11.4430 c3        1 TGL     -0.079400
     24 C14        11.3410    8.1710  -12.2540 c3        1 TGL     -0.079400
     25 OB1        -1.6230    2.0840   -4.0620 o         1 TGL     -0.530000
     26 OG1        -1.7340    1.9750   -0.4110 os        1 TGL     -0.440900
     27 CG1        -2.8310    2.8860   -0.5720 c3        1 TGL      0.127400
     28 CG2        -3.2340    2.7970   -2.0460 c3        1 TGL      0.135100
     29 OG2        -2.4180    3.7360   -2.7630 os        1 TGL     -0.444900
     30 CG3        -4.6890    3.2450   -2.2080 c3        1 TGL      0.127400
     31 OG3        -5.1280    2.7010   -3.4610 os        1 TGL     -0.440900
     32 CC1        -6.3980    3.0250   -3.8590 c         1 TGL      0.634100
     33 CC2        -6.7430    2.4440   -5.1940 c3        1 TGL     -0.127400
     34 CC3        -8.2130    2.0870   -5.2700 c3        1 TGL     -0.079400
     35 CC4        -8.5830    1.6380   -6.6670 c3        1 TGL     -0.078900
     36 CC5       -10.0480    1.2670   -6.7490 c3        1 TGL     -0.079400
     37 CC6       -10.4250    0.8270   -8.1470 c3        1 TGL     -0.079400
     38 CC7       -11.8910    0.4610   -8.2320 c3        1 TGL     -0.079400
     39 CC8       -12.2680    0.0270   -9.6320 c3        1 TGL     -0.079400
     40 CC9       -13.7350   -0.3350   -9.7190 c3        1 TGL     -0.079400
     41 C15       -14.1130   -0.7660  -11.1200 c3        1 TGL     -0.079400
     42 C16       -15.5810   -1.1240  -11.2080 c3        1 TGL     -0.079400
     43 C17       -15.9580   -1.5520  -12.6100 c3        1 TGL     -0.079400
     44 C18       -17.4270   -1.9070  -12.7000 c3        1 TGL     -0.079400
     45 C19       -17.8040   -2.3340  -14.1020 c3        1 TGL     -0.079400
     46 OC1        -7.0750    3.7360   -3.1140 o         1 TGL     -0.541000
     47 C20         8.8270   -1.1790    5.0020 c3        1 TGL     -0.079400
     48 C21         9.9750   -0.6530    5.8370 c3        1 TGL     -0.079400
     49 C22        11.0470   -1.7050    6.0210 c3        1 TGL     -0.079400
     50 C23        12.1940   -1.1800    6.8570 c3        1 TGL     -0.079400
     51 C24        13.2670   -2.2320    7.0410 c3        1 TGL     -0.079400
     52 C25        14.4140   -1.7070    7.8780 c3        1 TGL     -0.079400
     53 C26        15.4870   -2.7590    8.0610 c3        1 TGL     -0.079400
     54 C27        16.6340   -2.2350    8.8990 c3        1 TGL     -0.080400
     55 C28        17.7060   -3.2790    9.0830 c3        1 TGL     -0.092100
     56 C29        12.6920    7.7120  -12.7590 c3        1 TGL     -0.079400
     57 C30        13.3720    8.7940  -13.5700 c3        1 TGL     -0.079400
     58 C31        14.7240    8.3360  -14.0750 c3        1 TGL     -0.080400
     59 C32        15.4040    9.4110  -14.8830 c3        1 TGL     -0.092100
     60 C33       -19.2730   -2.6880  -14.1940 c3        1 TGL     -0.079400
     61 C34       -19.6490   -3.1140  -15.5960 c3        1 TGL     -0.079400
     62 C35       -21.1180   -3.4680  -15.6890 c3        1 TGL     -0.080400
     63 C36       -21.4980   -3.8920  -17.0840 c3        1 TGL     -0.092100
     64 HA21        0.3370    0.7130   -0.1420 hc        1 TGL      0.080450
     65 HA22       -0.4430   -0.0050    1.3310 hc        1 TGL      0.080450
     66 HA31        0.7020    1.7780    2.7530 hc        1 TGL      0.057700
     67 HA32        1.5490    2.3780    1.2750 hc        1 TGL      0.057700
     68 HA41        1.7320   -0.4970    2.4220 hc        1 TGL      0.041700
     69 HA42        2.5600    0.0890    0.9280 hc        1 TGL      0.041700
     70 HA51        2.9330    1.2570    3.7740 hc        1 TGL      0.042700
     71 HA52        3.7640    1.8380    2.2810 hc        1 TGL      0.042700
     72 HA61        4.7740   -0.4480    1.9550 hc        1 TGL      0.039950
     73 HA62        3.9460   -1.0260    3.4510 hc        1 TGL      0.039950
     74 HA71        5.1520    0.7280    4.7970 hc        1 TGL      0.040450
     75 HA72        5.9800    1.3070    3.3010 hc        1 TGL      0.040450
     76 HA81        6.1650   -1.5550    4.4750 hc        1 TGL      0.039700
     77 HA82        6.9920   -0.9780    2.9780 hc        1 TGL      0.039700
     78 HA91        8.1980    0.7790    4.3220 hc        1 TGL      0.039700
     79 HA92        7.3710    0.2000    5.8190 hc        1 TGL      0.039700
     80 HB21       -0.7710    5.2570   -3.7280 hc        1 TGL      0.078700
     81 HB22       -1.5130    4.7620   -5.3070 hc        1 TGL      0.078700
     82 HB31        1.1080    3.6450   -4.0670 hc        1 TGL      0.057700
     83 HB32        0.3420    3.0260   -5.5800 hc        1 TGL      0.057700
     84 HB41        1.2720    5.9470   -5.0900 hc        1 TGL      0.041200
     85 HB42        0.5190    5.3220   -6.6080 hc        1 TGL      0.041200
     86 HB51        3.1560    4.2970   -5.3430 hc        1 TGL      0.042700
     87 HB52        2.3990    3.6610   -6.8540 hc        1 TGL      0.042700
     88 HB61        2.5580    5.9520   -7.8940 hc        1 TGL      0.039700
     89 HB62        3.3200    6.5830   -6.3840 hc        1 TGL      0.039700
     90 HB71        4.4380    4.2920   -8.1470 hc        1 TGL      0.040200
     91 HB72        5.2010    4.9290   -6.6400 hc        1 TGL      0.040200
     92 HB81        4.5950    6.5810   -9.1910 hc        1 TGL      0.039700
     93 HB82        5.3630    7.2140   -7.6850 hc        1 TGL      0.039700
     94 HB91        7.2410    5.5560   -7.9460 hc        1 TGL      0.039700
     95 HB92        6.4710    4.9200   -9.4500 hc        1 TGL      0.039700
     96 H101        6.6280    7.2070  -10.4960 hc        1 TGL      0.039700
     97 H102        7.4020    7.8400   -8.9930 hc        1 TGL      0.039700
     98 H111        9.2770    6.1810   -9.2590 hc        1 TGL      0.039700
     99 H112        8.5030    5.5450  -10.7600 hc        1 TGL      0.039700
    100 H121        8.6590    7.8310  -11.8080 hc        1 TGL      0.039700
    101 H122        9.4350    8.4660  -10.3070 hc        1 TGL      0.039700
    102 H131       10.5340    6.1690  -12.0740 hc        1 TGL      0.039700
    103 H132       11.3100    6.8050  -10.5740 hc        1 TGL      0.039700
    104 H141       10.6910    8.4540  -13.1230 hc        1 TGL      0.039700
    105 H142       11.4670    9.0890  -11.6230 hc        1 TGL      0.039700
    106 HG11       -3.6680    2.5640    0.1000 h1        1 TGL      0.067700
    107 HG12       -2.4990    3.9210   -0.2980 h1        1 TGL      0.067700
    108 HG2        -3.0880    1.7530   -2.4410 h1        1 TGL      0.118700
    109 HG31       -5.3340    2.8330   -1.3900 h1        1 TGL      0.067700
    110 HG32       -4.7750    4.3620   -2.2370 h1        1 TGL      0.067700
    111 HC21       -6.1060    1.5410   -5.3870 hc        1 TGL      0.080450
    112 HC22       -6.4870    3.2160   -5.9700 hc        1 TGL      0.080450
    113 HC31       -8.4400    1.2700   -4.5360 hc        1 TGL      0.057700
    114 HC32       -8.8300    2.9780   -4.9760 hc        1 TGL      0.057700
    115 HC41       -8.3620    2.4590   -7.3990 hc        1 TGL      0.041700
    116 HC42       -7.9540    0.7560   -6.9590 hc        1 TGL      0.041700
    117 HC51      -10.6760    2.1480   -6.4490 hc        1 TGL      0.042700
    118 HC52      -10.2690    0.4420   -6.0220 hc        1 TGL      0.042700
    119 HC61       -9.7990   -0.0550   -8.4460 hc        1 TGL      0.039950
    120 HC62      -10.2010    1.6520   -8.8740 hc        1 TGL      0.039950
    121 HC71      -12.5170    1.3420   -7.9300 hc        1 TGL      0.040450
    122 HC72      -12.1140   -0.3660   -7.5080 hc        1 TGL      0.040450
    123 HC81      -12.0410    0.8530  -10.3560 hc        1 TGL      0.039700
    124 HC82      -11.6450   -0.8570   -9.9320 hc        1 TGL      0.039700
    125 HC91      -14.3590    0.5470   -9.4150 hc        1 TGL      0.039700
    126 HC92      -13.9620   -1.1630   -8.9960 hc        1 TGL      0.039700
    127 H151      -13.8830    0.0610  -11.8420 hc        1 TGL      0.039700
    128 H152      -13.4910   -1.6500  -11.4210 hc        1 TGL      0.039700
    129 H161      -15.8100   -1.9520  -10.4870 hc        1 TGL      0.039700
    130 H162      -16.2020   -0.2400  -10.9050 hc        1 TGL      0.039700
    131 H171      -15.7270   -0.7240  -13.3310 hc        1 TGL      0.039700
    132 H172      -15.3380   -2.4360  -12.9130 hc        1 TGL      0.039700
    133 H181      -17.6580   -2.7360  -11.9800 hc        1 TGL      0.039700
    134 H182      -18.0470   -1.0230  -12.3960 hc        1 TGL      0.039700
    135 H191      -17.5710   -1.5060  -14.8230 hc        1 TGL      0.039700
    136 H192      -17.1840   -3.2190  -14.4060 hc        1 TGL      0.039700
    137 H201        9.2100   -1.5050    3.9990 hc        1 TGL      0.039700
    138 H202        8.3840   -2.0830    5.4960 hc        1 TGL      0.039700
    139 H211       10.4160    0.2520    5.3430 hc        1 TGL      0.039700
    140 H212        9.5910   -0.3270    6.8400 hc        1 TGL      0.039700
    141 H221       11.4310   -2.0310    5.0190 hc        1 TGL      0.039700
    142 H222       10.6050   -2.6100    6.5160 hc        1 TGL      0.039700
    143 H231       12.6360   -0.2750    6.3640 hc        1 TGL      0.039700
    144 H232       11.8110   -0.8550    7.8600 hc        1 TGL      0.039700
    145 H241       13.6510   -2.5560    6.0380 hc        1 TGL      0.039700
    146 H242       12.8250   -3.1380    7.5340 hc        1 TGL      0.039700
    147 H251       14.8550   -0.8010    7.3850 hc        1 TGL      0.039700
    148 H252       14.0300   -1.3830    8.8810 hc        1 TGL      0.039700
    149 H261       15.0460   -3.6650    8.5530 hc        1 TGL      0.039700
    150 H262       15.8720   -3.0820    7.0580 hc        1 TGL      0.039700
    151 H271       17.0730   -1.3270    8.4060 hc        1 TGL      0.038700
    152 H272       16.2470   -1.9110    9.9010 hc        1 TGL      0.038700
    153 H281       17.2930   -4.1810    9.5950 hc        1 TGL      0.032700
    154 H282       18.5410   -2.8730    9.7030 hc        1 TGL      0.032700
    155 H283       18.1210   -3.5960    8.0960 hc        1 TGL      0.032700
    156 H291       12.5650    6.7930  -13.3890 hc        1 TGL      0.039700
    157 H292       13.3420    7.4290  -11.8890 hc        1 TGL      0.039700
    158 H301       12.7220    9.0770  -14.4390 hc        1 TGL      0.039700
    159 H302       13.4980    9.7130  -12.9390 hc        1 TGL      0.039700
    160 H311       15.3710    8.0530  -13.2040 hc        1 TGL      0.038700
    161 H312       14.5950    7.4160  -14.7040 hc        1 TGL      0.038700
    162 H321       15.5630   10.3280  -14.2660 hc        1 TGL      0.032700
    163 H322       16.3980    9.0530  -15.2460 hc        1 TGL      0.032700
    164 H323       14.7850    9.6890  -15.7700 hc        1 TGL      0.032700
    165 H331      -19.8920   -1.8030  -13.8900 hc        1 TGL      0.039700
    166 H332      -19.5050   -3.5170  -13.4740 hc        1 TGL      0.039700
    167 H341      -19.0300   -3.9990  -15.9000 hc        1 TGL      0.039700
    168 H342      -19.4170   -2.2850  -16.3160 hc        1 TGL      0.039700
    169 H351      -21.3490   -4.2950  -14.9670 hc        1 TGL      0.038700
    170 H352      -21.7360   -2.5820  -15.3830 hc        1 TGL      0.038700
    171 H361      -20.9100   -4.7890  -17.3970 hc        1 TGL      0.032700
    172 H362      -21.2980   -3.0710  -17.8140 hc        1 TGL      0.032700
    173 H363      -22.5840   -4.1480  -17.1300 hc        1 TGL      0.032700
@<TRIPOS>BOND
     1    1    2 1   
     2    1   10 2   
     3    1   26 1   
     4    2    3 1   
     5    2   64 1   
     6    2   65 1   
     7    3    4 1   
     8    3   66 1   
     9    3   67 1   
    10    4    5 1   
    11    4   68 1   
    12    4   69 1   
    13    5    6 1   
    14    5   70 1   
    15    5   71 1   
    16    6    7 1   
    17    6   72 1   
    18    6   73 1   
    19    7    8 1   
    20    7   74 1   
    21    7   75 1   
    22    8    9 1   
    23    8   76 1   
    24    8   77 1   
    25    9   47 1   
    26    9   78 1   
    27    9   79 1   
    28   11   12 1   
    29   11   25 2   
    30   11   29 1   
    31   12   13 1   
    32   12   80 1   
    33   12   81 1   
    34   13   14 1   
    35   13   82 1   
    36   13   83 1   
    37   14   15 1   
    38   14   84 1   
    39   14   85 1   
    40   15   16 1   
    41   15   86 1   
    42   15   87 1   
    43   16   17 1   
    44   16   88 1   
    45   16   89 1   
    46   17   18 1   
    47   17   90 1   
    48   17   91 1   
    49   18   19 1   
    50   18   92 1   
    51   18   93 1   
    52   19   20 1   
    53   19   94 1   
    54   19   95 1   
    55   20   21 1   
    56   20   96 1   
    57   20   97 1   
    58   21   22 1   
    59   21   98 1   
    60   21   99 1   
    61   22   23 1   
    62   22  100 1   
    63   22  101 1   
    64   23   24 1   
    65   23  102 1   
    66   23  103 1   
    67   24   56 1   
    68   24  104 1   
    69   24  105 1   
    70   26   27 1   
    71   27   28 1   
    72   27  106 1   
    73   27  107 1   
    74   28   29 1   
    75   28   30 1   
    76   28  108 1   
    77   30   31 1   
    78   30  109 1   
    79   30  110 1   
    80   31   32 1   
    81   32   33 1   
    82   32   46 2   
    83   33   34 1   
    84   33  111 1   
    85   33  112 1   
    86   34   35 1   
    87   34  113 1   
    88   34  114 1   
    89   35   36 1   
    90   35  115 1   
    91   35  116 1   
    92   36   37 1   
    93   36  117 1   
    94   36  118 1   
    95   37   38 1   
    96   37  119 1   
    97   37  120 1   
    98   38   39 1   
    99   38  121 1   
   100   38  122 1   
   101   39   40 1   
   102   39  123 1   
   103   39  124 1   
   104   40   41 1   
   105   40  125 1   
   106   40  126 1   
   107   41   42 1   
   108   41  127 1   
   109   41  128 1   
   110   42   43 1   
   111   42  129 1   
   112   42  130 1   
   113   43   44 1   
   114   43  131 1   
   115   43  132 1   
   116   44   45 1   
   117   44  133 1   
   118   44  134 1   
   119   45   60 1   
   120   45  135 1   
   121   45  136 1   
   122   47   48 1   
   123   47  137 1   
   124   47  138 1   
   125   48   49 1   
   126   48  139 1   
   127   48  140 1   
   128   49   50 1   
   129   49  141 1   
   130   49  142 1   
   131   50   51 1   
   132   50  143 1   
   133   50  144 1   
   134   51   52 1   
   135   51  145 1   
   136   51  146 1   
   137   52   53 1   
   138   52  147 1   
   139   52  148 1   
   140   53   54 1   
   141   53  149 1   
   142   53  150 1   
   143   54   55 1   
   144   54  151 1   
   145   54  152 1   
   146   55  153 1   
   147   55  154 1   
   148   55  155 1   
   149   56   57 1   
   150   56  156 1   
   151   56  157 1   
   152   57   58 1   
   153   57  158 1   
   154   57  159 1   
   155   58   59 1   
   156   58  160 1   
   157   58  161 1   
   158   59  162 1   
   159   59  163 1   
   160   59  164 1   
   161   60   61 1   
   162   60  165 1   
   163   60  166 1   
   164   61   62 1   
   165   61  167 1   
   166   61  168 1   
   167   62   63 1   
   168   62  169 1   
   169   62  170 1   
   170   63  171 1   
   171   63  172 1   
   172   63  173 1   
@<TRIPOS>SUBSTRUCTURE
     1 TGL         1 TEMP              0 ****  ****    0 ROOT
