@<TRIPOS>MOLECULE
molecule
   44    46     1     0     0
SMALL
bcc


@<TRIPOS>ATOM
      1 C8           0.0000     0.0000     0.0000 c3         1 TGN      -0.111700
      2 C10          1.5370     0.0000     0.0000 c3         1 TGN       0.154500
      3 N12          1.9750     0.0000     1.4240 n3         1 TGN      -0.633600
      4 C14          3.4400    -0.1080     1.4150 c3         1 TGN       0.119100
      5 C18          2.0120     1.3970    -0.5380 c3         1 TGN      -0.119400
      6 C21          2.0930     2.2930     0.7140 c3         1 TGN      -0.120400
      7 C24          1.6610     1.3790     1.8840 c3         1 TGN       0.131500
      8 C26          0.1330     1.4780     2.0170 c3         1 TGN      -0.084400
      9 C29         -0.4980     1.3020     0.6330 c3         1 TGN       0.182100
     10 O1          -1.9210     1.2530     0.7640 os         1 TGN      -0.539200
     11 P2          -2.5090     2.4830    -0.0940 p5         1 TGN       1.189900
     12 O17         -1.8840     3.7450     0.3600 o          1 TGN      -0.816500
     13 O3          -2.1820     2.2540    -1.6540 o          1 TGN      -0.816500
     14 C4          -4.3040     2.5790     0.1410 ca         1 TGN      -0.225500
     15 C5          -4.9310     1.7320     1.0350 ca         1 TGN      -0.065500
     16 C13         -5.0480     3.4950    -0.5800 ca         1 TGN      -0.065500
     17 C7          -6.3000     1.8090     1.2170 ca         1 TGN      -0.162000
     18 C9          -7.0420     2.7260     0.4970 ca         1 TGN      -0.133000
     19 C11         -6.4160     3.5690    -0.4020 ca         1 TGN      -0.162000
     20 C6          -0.5050    -1.1750     0.7970 c          1 TGN       0.656100
     21 O7           0.2780    -1.9380     1.3110 o          1 TGN      -0.562000
     22 O5          -1.8260    -1.3730     0.9370 os         1 TGN      -0.404900
     23 C1          -2.3120    -2.5050     1.7060 c3         1 TGN       0.144700
     24 H8          -0.3630    -0.0700    -1.0180 hc         1 TGN       0.102700
     25 H10          1.9550    -0.8260    -0.5630 h1         1 TGN       0.072700
     26 H141         3.7340    -0.9980     0.8720 h1         1 TGN       0.026700
     27 H142         3.8640     0.7650     0.9330 h1         1 TGN       0.026700
     28 H143         3.8040    -0.1700     2.4340 h1         1 TGN       0.026700
     29 H181         2.9860     1.3110    -1.0040 hc         1 TGN       0.056200
     30 H182         1.2900     1.7950    -1.2410 hc         1 TGN       0.056200
     31 H211         1.4150     3.1330     0.6210 hc         1 TGN       0.055700
     32 H212         3.1080     2.6420     0.8630 hc         1 TGN       0.055700
     33 H24          2.1700     1.6280     2.8070 h1         1 TGN       0.060700
     34 H261        -0.2250     0.7000     2.6810 hc         1 TGN       0.061700
     35 H262        -0.1350     2.4490     2.4180 hc         1 TGN       0.061700
     36 H29         -0.2230     2.1390     0.0020 h1         1 TGN       0.091700
     37 H5          -4.3490     1.0130     1.6000 ha         1 TGN       0.138000
     38 H13         -4.5570     4.1560    -1.2850 ha         1 TGN       0.138000
     39 H7          -6.7910     1.1470     1.9200 ha         1 TGN       0.106000
     40 H9          -8.1140     2.7850     0.6380 ha         1 TGN       0.101000
     41 H11         -6.9990     4.2870    -0.9670 ha         1 TGN       0.106000
     42 H11A        -2.0020    -2.4000     2.7390 h1         1 TGN       0.034033
     43 H12         -1.9030    -3.4210     1.2970 h1         1 TGN       0.034033
     44 H13A        -3.3940    -2.5380     1.6550 h1         1 TGN       0.034033
@<TRIPOS>BOND
     1     1     2 1
     2     1     9 1
     3     1    20 1
     4     1    24 1
     5     2     3 1
     6     2     5 1
     7     2    25 1
     8     3     4 1
     9     3     7 1
    10     4    26 1
    11     4    27 1
    12     4    28 1
    13     5     6 1
    14     5    29 1
    15     5    30 1
    16     6     7 1
    17     6    31 1
    18     6    32 1
    19     7     8 1
    20     7    33 1
    21     8     9 1
    22     8    34 1
    23     8    35 1
    24     9    10 1
    25     9    36 1
    26    10    11 1
    27    11    12 1
    28    11    13 1
    29    11    14 1
    30    14    15 ar
    31    14    16 ar
    32    15    17 ar
    33    15    37 1
    34    16    19 ar
    35    16    38 1
    36    17    18 ar
    37    17    39 1
    38    18    19 ar
    39    18    40 1
    40    19    41 1
    41    20    21 2
    42    20    22 1
    43    22    23 1
    44    23    42 1
    45    23    43 1
    46    23    44 1
@<TRIPOS>SUBSTRUCTURE
     1 TGN         1 TEMP              0 ****  ****    0 ROOT
