@<TRIPOS>MOLECULE
molecule
   57    59     1     0     0
SMALL
bcc


@<TRIPOS>ATOM
      1 N3           0.0000     0.0000     0.0000 nc         1 TGQ      -0.623100
      2 C2           1.3160     0.0000     0.0000 cd         1 TGQ       0.599100
      3 N1           2.0260     0.0000     1.1610 na         1 TGQ      -0.685000
      4 C8A          1.3710    -0.0020     2.3640 cc         1 TGQ       0.237000
      5 C4A          0.0050     0.0010     2.3770 cd         1 TGQ       0.018800
      6 C06         -0.6910     0.0010     1.1520 c          1 TGQ       0.696700
      7 N8           2.0790    -0.0110     3.5500 nu         1 TGQ      -0.823000
      8 C7           1.3950     0.3640     4.7960 c3         1 TGQ       0.231800
      9 C6           0.0350    -0.3510     4.8310 c3         1 TGQ       0.193500
     10 N5          -0.6950     0.0060     3.6040 nu         1 TGQ      -0.766000
     11 C9           0.2470    -1.8650     4.8850 c3         1 TGQ       0.229800
     12 N10         -1.0480    -2.5430     4.7970 nh         1 TGQ      -0.742000
     13 C15         -1.5670    -2.8940     3.5560 ca         1 TGQ       0.192600
     14 C14         -0.8510    -2.6060     2.3980 ca         1 TGQ      -0.225500
     15 C13         -1.3610    -2.9530     1.1680 ca         1 TGQ      -0.049500
     16 C12         -2.6000    -3.5940     1.0820 ca         1 TGQ      -0.133600
     17 C17         -3.3160    -3.8820     2.2470 ca         1 TGQ      -0.049500
     18 C16         -2.7980    -3.5380     3.4750 ca         1 TGQ      -0.225500
     19 C           -3.1500    -3.9670    -0.2350 c          1 TGQ       0.666700
     20 N           -4.3440    -4.5860    -0.3160 ns         1 TGQ      -0.505900
     21 CA          -4.8900    -4.9560    -1.6240 c3         1 TGQ       0.000700
     22 CT          -5.6240    -3.7780    -2.2140 c          1 TGQ       0.890600
     23 O1          -6.2100    -3.8860    -3.4160 o          1 TGQ      -0.836300
     24 O2          -5.6830    -2.7370    -1.6040 o          1 TGQ      -0.836300
     25 CB          -5.8590    -6.1280    -1.4590 c3         1 TGQ      -0.061400
     26 CG          -5.0910    -7.3610    -0.9780 c3         1 TGQ      -0.186400
     27 CD          -6.0450    -8.5160    -0.8160 c          1 TGQ       0.889600
     28 OE1         -5.5910    -9.7080    -0.4010 o          1 TGQ      -0.861800
     29 OE2         -7.2200    -8.3680    -1.0600 o          1 TGQ      -0.861800
     30 O           -2.5260    -3.7150    -1.2480 o          1 TGQ      -0.654100
     31 O4          -1.9150     0.0010     1.1370 o          1 TGQ      -0.452100
     32 NA2          1.9860    -0.0000    -1.1970 nz         1 TGQ      -0.727600
     33 CBG         -1.7980    -2.8510     6.0180 c3         1 TGQ       0.232100
     34 H3           1.9910     0.0540     5.6460 h1         1 TGQ       0.057700
     35 H4           1.2430     1.4360     4.8200 h1         1 TGQ       0.057700
     36 H5          -0.5260    -0.0240     5.6970 h1         1 TGQ       0.078700
     37 H6          -1.6660     0.2470     3.6380 hn         1 TGQ       0.484800
     38 H8           0.7290    -2.1290     5.8190 h1         1 TGQ       0.052700
     39 H9           0.8720    -2.1720     4.0560 h1         1 TGQ       0.052700
     40 H10          0.1090    -2.1090     2.4640 ha         1 TGQ       0.114000
     41 H11         -0.8030    -2.7280     0.2670 ha         1 TGQ       0.143500
     42 H12         -4.2760    -4.3820     2.1840 ha         1 TGQ       0.143500
     43 H13         -3.3530    -3.7610     4.3780 ha         1 TGQ       0.114000
     44 H14         -4.8720    -4.7670     0.5150 hn         1 TGQ       0.304500
     45 H15         -4.0820    -5.2450    -2.2840 h1         1 TGQ       0.069700
     46 H17         -6.6190    -5.8690    -0.7310 hc         1 TGQ       0.065200
     47 H18         -6.3300    -6.3440    -2.4110 hc         1 TGQ       0.065200
     48 H19         -4.6210    -7.1450    -0.0260 hc         1 TGQ       0.020200
     49 H20         -4.3320    -7.6200    -1.7060 hc         1 TGQ       0.020200
     50 H22          2.5370    -0.8330    -1.2700 hn         1 TGQ       0.469133
     51 H23          1.3260     0.0310    -1.9490 hn         1 TGQ       0.469133
     52 H24         -2.7930    -2.4300     5.9460 h1         1 TGQ       0.034367
     53 H25         -1.2860    -2.4260     6.8730 h1         1 TGQ       0.034367
     54 H26         -1.8680    -3.9250     6.1370 h1         1 TGQ       0.034367
     55 H1           3.0260     0.0000     1.1360 hn         1 TGQ       0.436800
     56 H2           3.0460    -0.2690     3.5610 hn         1 TGQ       0.433800
     57 HA23         2.5900     0.7970    -1.2410 hn         1 TGQ       0.469133
@<TRIPOS>BOND
     1     7     8 1
     2     7     4 1
     3     8     9 1
     4     9    11 1
     5     9    10 1
     6     3     4 1
     7     3     2 1
     8     4     5 2
     9    11    12 1
    10     2    32 1
    11     2     1 2
    12     5    10 1
    13     5     6 1
    14    33    12 1
    15    12    13 1
    16     1     6 1
    17     6    31 2
    18    13    18 ar
    19    13    14 ar
    20    18    17 ar
    21    17    16 ar
    22    14    15 ar
    23    15    16 ar
    24    16    19 1
    25    19    30 2
    26    19    20 1
    27    20    21 1
    28    21    25 1
    29    21    22 1
    30    25    26 1
    31    23    22 1
    32    22    24 1
    33    26    27 1
    34    27    29 1
    35    27    28 1
    36     8    34 1
    37     8    35 1
    38     9    36 1
    39    10    37 1
    40    11    38 1
    41    11    39 1
    42    14    40 1
    43    15    41 1
    44    17    42 1
    45    18    43 1
    46    20    44 1
    47    21    45 1
    48    25    46 1
    49    25    47 1
    50    26    48 1
    51    26    49 1
    52    32    50 1
    53    32    51 1
    54    33    52 1
    55    33    53 1
    56    33    54 1
    57     3    55 1
    58     7    56 1
    59    57    32 1
@<TRIPOS>SUBSTRUCTURE
     1 TGQ         1 TEMP              0 ****  ****    0 ROOT
