@<TRIPOS>MOLECULE
TGQ
   57    59     1     0     0
SMALL
bcc


@<TRIPOS>ATOM
      1 N3           0.0000     0.0000     0.0000 nc         1 TGQ      -0.491100
      2 C2           1.3160     0.0000     0.0000 cd         1 TGQ       0.112100
      3 N1           2.0260     0.0000     1.1610 na         1 TGQ      -0.143000
      4 C8A          1.3710    -0.0020     2.3640 cc         1 TGQ      -0.081000
      5 C4A          0.0050     0.0010     2.3770 cd         1 TGQ      -0.118200
      6 C06         -0.6910     0.0010     1.1520 c          1 TGQ       0.682700
      7 N8           2.0790    -0.0110     3.5500 nu         1 TGQ      -0.405000
      8 C7           1.3950     0.3640     4.7960 c3         1 TGQ       0.169800
      9 C6           0.0350    -0.3510     4.8310 c3         1 TGQ       0.083500
     10 N5          -0.6950     0.0060     3.6040 nu         1 TGQ      -0.325000
     11 C9           0.2470    -1.8650     4.8850 c3         1 TGQ       0.158800
     12 N10         -1.0480    -2.5430     4.7970 nh         1 TGQ      -0.402000
     13 C15         -1.5670    -2.8940     3.5560 ca         1 TGQ       0.062600
     14 C14         -0.8510    -2.6060     2.3980 ca         1 TGQ      -0.222000
     15 C13         -1.3610    -2.9530     1.1680 ca         1 TGQ      -0.017000
     16 C12         -2.6000    -3.5940     1.0820 ca         1 TGQ      -0.134600
     17 C17         -3.3160    -3.8820     2.2470 ca         1 TGQ      -0.017000
     18 C16         -2.7980    -3.5380     3.4750 ca         1 TGQ      -0.222000
     19 C           -3.1500    -3.9670    -0.2350 c          1 TGQ       0.574700
     20 N           -4.3440    -4.5860    -0.3160 ns         1 TGQ      -0.078900
     21 CA          -4.8900    -4.9560    -1.6240 c3         1 TGQ      -0.106300
     22 CT          -5.6240    -3.7780    -2.2140 c          1 TGQ       0.983600
     23 O1          -6.2100    -3.8860    -3.4160 o          1 TGQ      -0.864300
     24 O2          -5.6830    -2.7370    -1.6040 o          1 TGQ      -0.864300
     25 CB          -5.8590    -6.1280    -1.4590 c3         1 TGQ      -0.014400
     26 CG          -5.0910    -7.3610    -0.9780 c3         1 TGQ      -0.140400
     27 CD          -6.0450    -8.5160    -0.8160 c          1 TGQ       0.980600
     28 OE1         -5.5910    -9.7080    -0.4010 o          1 TGQ      -0.902300
     29 OE2         -7.2200    -8.3680    -1.0600 o          1 TGQ      -0.902300
     30 O           -2.5260    -3.7150    -1.2480 o          1 TGQ      -0.698100
     31 O4          -1.9150     0.0010     1.1370 o          1 TGQ      -0.503100
     32 NA2          1.9860    -0.0000    -1.1970 nz         1 TGQ       0.223400
     33 CBG         -1.7980    -2.8510     6.0180 c3         1 TGQ       0.212100
     34 H3           1.9910     0.0540     5.6460 h1         1 TGQ       0.026200
     35 H4           1.2430     1.4360     4.8200 h1         1 TGQ       0.026200
     36 H5          -0.5260    -0.0240     5.6970 h1         1 TGQ       0.050700
     37 H6          -1.6660     0.2470     3.6380 hn         1 TGQ       0.327800
     38 H8           0.7290    -2.1290     5.8190 h1         1 TGQ       0.029700
     39 H9           0.8720    -2.1720     4.0560 h1         1 TGQ       0.029700
     40 H10          0.1090    -2.1090     2.4640 ha         1 TGQ       0.106500
     41 H11         -0.8030    -2.7280     0.2670 ha         1 TGQ       0.115000
     42 H12         -4.2760    -4.3820     2.1840 ha         1 TGQ       0.115000
     43 H13         -3.3530    -3.7610     4.3780 ha         1 TGQ       0.106500
     44 H14         -4.8720    -4.7670     0.5150 hn         1 TGQ       0.163500
     45 H15         -4.0820    -5.2450    -2.2840 h1         1 TGQ       0.054700
     46 H17         -6.6190    -5.8690    -0.7310 hc         1 TGQ       0.040700
     47 H18         -6.3300    -6.3440    -2.4110 hc         1 TGQ       0.040700
     48 H19         -4.6210    -7.1450    -0.0260 hc         1 TGQ      -0.001800
     49 H20         -4.3320    -7.6200    -1.7060 hc         1 TGQ      -0.001800
     50 H22          2.5370    -0.8330    -1.2700 hn         1 TGQ       0.205133
     51 H23          1.3260     0.0310    -1.9490 hn         1 TGQ       0.205133
     52 H24         -2.7930    -2.4300     5.9460 h1         1 TGQ       0.005033
     53 H25         -1.2860    -2.4260     6.8730 h1         1 TGQ       0.005033
     54 H26         -1.8680    -3.9250     6.1370 h1         1 TGQ       0.005033
     55 H1           3.0260     0.0000     1.1360 hn         1 TGQ       0.261800
     56 H2           3.0460    -0.2690     3.5610 hn         1 TGQ       0.283800
     57 HA23         2.5900     0.7970    -1.2410 hn         1 TGQ       0.205133
@<TRIPOS>BOND
     1     1     2 2   
     2     1     6 1   
     3     2     3 1   
     4     2    32 1   
     5     3     4 1   
     6     3    55 1   
     7     4     5 2   
     8     4     7 1   
     9     5     6 1   
    10     5    10 1   
    11     6    31 2   
    12     7     8 1   
    13     7    56 1   
    14     8     9 1   
    15     8    34 1   
    16     8    35 1   
    17     9    10 1   
    18     9    11 1   
    19     9    36 1   
    20    10    37 1   
    21    11    12 1   
    22    11    38 1   
    23    11    39 1   
    24    12    13 1   
    25    12    33 1   
    26    13    14 ar  
    27    13    18 ar  
    28    14    15 ar  
    29    14    40 1   
    30    15    16 ar  
    31    15    41 1   
    32    16    17 ar  
    33    16    19 1   
    34    17    18 ar  
    35    17    42 1   
    36    18    43 1   
    37    19    20 1   
    38    19    30 2   
    39    20    21 1   
    40    20    44 1   
    41    21    22 1   
    42    21    25 1   
    43    21    45 1   
    44    22    23 1   
    45    22    24 1   
    46    25    26 1   
    47    25    46 1   
    48    25    47 1   
    49    26    27 1   
    50    26    48 1   
    51    26    49 1   
    52    27    28 1   
    53    27    29 1   
    54    32    50 1   
    55    32    51 1   
    56    32    57 1   
    57    33    52 1   
    58    33    53 1   
    59    33    54 1   
@<TRIPOS>SUBSTRUCTURE
     1 TGQ         1 TEMP              0 ****  ****    0 ROOT
