@<TRIPOS>MOLECULE
molecule
   23    23     1     0     0
SMALL
bcc


@<TRIPOS>ATOM
      1 C1           0.0000     0.0000     0.0000 c3         1 TGR      -0.129100
      2 C2           1.5300     0.0000     0.0000 c3         1 TGR       0.157100
      3 O2           2.0060     0.0000     1.3480 oh         1 TGR      -0.593800
      4 C3           2.0410     1.2490    -0.7200 c3         1 TGR       0.349600
      5 O3           1.4960     2.4260    -0.1200 oh         1 TGR      -0.596800
      6 C4           3.5850     1.2930    -0.6920 c3         1 TGR       0.124100
      7 O4           4.1200    -0.0220    -0.5330 oh         1 TGR      -0.595800
      8 C5           3.9690     1.8690    -2.0730 c3         1 TGR       0.079100
      9 O5           4.6760     3.1020    -1.9220 oh         1 TGR      -0.593800
     10 C6           2.6120     2.1050    -2.7720 c3         1 TGR       0.109400
     11 O6           1.6990     1.1950    -2.1220 os         1 TGR      -0.423600
     12 H1          -0.3610    -0.9630     0.3410 hc         1 TGR       0.046033
     13 H2          -0.3610     0.7760     0.6640 hc         1 TGR       0.046033
     14 H3          -0.3610     0.1860    -1.0040 hc         1 TGR       0.046033
     15 H4           1.8920    -0.8850    -0.5110 h1         1 TGR       0.059700
     16 H5           1.9190    -0.8650     1.7120 ho         1 TGR       0.404000
     17 H6           0.7700     2.7350    -0.6360 ho         1 TGR       0.418000
     18 H7           3.9290     1.9480     0.0990 h1         1 TGR       0.089700
     19 H8           4.9850     0.0330    -0.1610 ho         1 TGR       0.410000
     20 H9           4.5610     1.1520    -2.6300 h1         1 TGR       0.058700
     21 H10          5.4450     3.0930    -2.4670 ho         1 TGR       0.405000
     22 H11          2.2880     3.1290    -2.6280 h1         1 TGR       0.064700
     23 H12          2.6870     1.8720    -3.8270 h1         1 TGR       0.064700
@<TRIPOS>BOND
     1     7     6 1
     2     3     2 1
     3     2     1 1
     4     2     4 1
     5     6     8 1
     6     6     4 1
     7     8    10 1
     8     8     9 1
     9    10    11 1
    10     4    11 1
    11     4     5 1
    12     1    12 1
    13     1    13 1
    14     1    14 1
    15     2    15 1
    16     3    16 1
    17     5    17 1
    18     6    18 1
    19     7    19 1
    20     8    20 1
    21     9    21 1
    22    10    22 1
    23    10    23 1
@<TRIPOS>SUBSTRUCTURE
     1 TGR         1 TEMP              0 ****  ****    0 ROOT
