@<TRIPOS>MOLECULE
molecule
   23    22     1     0     0
SMALL
bcc


@<TRIPOS>ATOM
      1 C1           0.0000     0.0000     0.0000 c3         1 TGS      -0.110100
      2 C2           1.5300     0.0000     0.0000 c3         1 TGS       0.049100
      3 O2           2.0060     0.0000     1.3480 oh         1 TGS      -0.574800
      4 C3           2.0320     1.2300    -0.7100 c          1 TGS       0.525100
      5 O3           2.4880     2.1510    -0.0750 o          1 TGS      -0.442100
      6 C4           1.9650     1.3130    -2.2140 c3         1 TGS       0.059100
      7 O4           2.1600     2.6660    -2.6260 oh         1 TGS      -0.562800
      8 C5           3.0570     0.4310    -2.8220 c3         1 TGS       0.164100
      9 O5           4.3270     0.8100    -2.2870 oh         1 TGS      -0.577800
     10 C6           3.0710     0.6110    -4.3410 c3         1 TGS       0.114400
     11 O6           4.0100    -0.2960    -4.9200 oh         1 TGS      -0.617800
     12 H1          -0.3610    -0.0980     1.0170 hc         1 TGS       0.048033
     13 H2          -0.3610     0.9300    -0.4230 hc         1 TGS       0.048033
     14 H3          -0.3610    -0.8310    -0.5940 hc         1 TGS       0.048033
     15 H4           1.8910    -0.8850    -0.5100 h1         1 TGS       0.039700
     16 H5           2.2920    -0.8680     1.5800 ho         1 TGS       0.403000
     17 H6           0.9940     0.9690    -2.5510 h1         1 TGS       0.045700
     18 H7           1.3290     3.1110    -2.6490 ho         1 TGS       0.403000
     19 H8           2.8590    -0.6060    -2.5830 h1         1 TGS       0.040700
     20 H9           4.9070     0.0670    -2.2980 ho         1 TGS       0.411000
     21 H10          2.0830     0.4100    -4.7370 h1         1 TGS       0.038700
     22 H11          3.3550     1.6280    -4.5820 h1         1 TGS       0.038700
     23 H12          3.9350    -0.2700    -5.8600 ho         1 TGS       0.409000
@<TRIPOS>BOND
     1     5     4 2
     2     7     6 1
     3     3     2 1
     4     4     6 1
     5     4     2 1
     6     6     8 1
     7     2     1 1
     8     9     8 1
     9     8    10 1
    10    10    11 1
    11     1    12 1
    12     1    13 1
    13     1    14 1
    14     2    15 1
    15     3    16 1
    16     6    17 1
    17     7    18 1
    18     8    19 1
    19     9    20 1
    20    10    21 1
    21    10    22 1
    22    11    23 1
@<TRIPOS>SUBSTRUCTURE
     1 TGS         1 TEMP              0 ****  ****    0 ROOT
