@<TRIPOS>MOLECULE
TGT
   42    40     1     0     0
SMALL
bcc


@<TRIPOS>ATOM
      1 C1          0.2840   -0.2900    0.1270 c2        1 TGT      0.282000
      2 C2          1.7950   -0.0150    0.1830 c3        1 TGT     -0.217000
      3 C3          2.1380    0.3260    1.6550 c3        1 TGT     -0.041000
      4 C4          1.6800   -0.8260    2.5240 c1        1 TGT     -0.036000
      5 C5          2.3220   -3.6620    1.0860 c2        1 TGT     -0.467000
      6 C6         -0.0620   -2.7590    0.2360 c3        1 TGT     -0.291000
      7 C7         -0.1230   -1.4480    0.9950 c3        1 TGT     -0.141000
      8 C8          3.3630   -2.8470    1.5070 c2        1 TGT      0.257000
      9 C9         -1.6080   -1.2440    1.6180 c2        1 TGT      0.383000
     10 C11         1.0990    3.8540    2.0520 c3        1 TGT     -0.235000
     11 O1          0.7220   -1.5920    2.1890 os        1 TGT     -0.042000
     12 O2          1.8850   -4.6460    1.9650 oh        1 TGT     -0.273000
     13 O3          4.1550   -2.0780    0.9200 o         1 TGT     -0.428000
     14 O4         -1.6570   -0.4650    2.5890 o         1 TGT     -0.493500
     15 O5         -2.5030   -1.9200    1.0730 o         1 TGT     -0.493500
     16 O6         -0.4690    0.3800   -0.5790 o         1 TGT     -0.272000
     17 O7          0.4340    1.5910   -2.7290 o         1 TGT     -1.131333
     18 O8          0.1570    2.9760   -0.7860 o         1 TGT     -1.131333
     19 O9         -1.8110    2.9330   -2.5080 o         1 TGT     -1.131333
     20 O10         1.4550    1.5020    2.0770 os        1 TGT     -0.232000
     21 O11         3.1540    2.7220    1.2910 o         1 TGT     -0.422000
     22 N1          3.6270   -2.8620    3.0260 n4        1 TGT     -0.153000
     23 N2          2.2500    1.0190   -0.7650 n4        1 TGT     -0.080000
     24 P1         -0.5260    2.4590   -2.0070 p3        1 TGT      2.469000
     25 S1          1.5020   -3.3800   -0.3550 ss        1 TGT      0.202000
     26 H1         -1.0680    1.5570    1.6060 ha        1 TGT      0.000000
     27 H2         -0.9250    2.2200    1.6400 ha        1 TGT      0.000000
     28 H3          2.3160   -1.0040   -0.0770 hx        1 TGT      0.194000
     29 H4          3.2520    0.4450    1.7740 h1        1 TGT      0.138000
     30 H61        -0.5520   -3.5350    0.8760 h1        1 TGT      0.147000
     31 H62        -0.6950   -2.6440   -0.6840 h1        1 TGT      0.147000
     32 H111        0.4480    3.9720    1.1340 hc        1 TGT      0.140667
     33 H112        0.4430    3.6320    2.9270 hc        1 TGT      0.140667
     34 H113        1.6920    4.7820    2.2270 hc        1 TGT      0.140667
     35 HO2         1.0100   -4.3570    2.2720 ho        1 TGT      0.191000
     36 HN11        3.4220   -3.7830    3.4050 hn        1 TGT      0.235667
     37 HN12        2.9690   -2.1620    3.4210 hn        1 TGT      0.235667
     38 HN21        3.2090    1.2890   -0.5610 hn        1 TGT      0.275000
     39 HN22        2.1390    0.6830   -1.7360 hn        1 TGT      0.275000
     40 C10         2.0140    2.7220    1.7740 c2        1 TGT      0.344000
     41 H13         4.5840   -2.5920    3.2250 hn        1 TGT      0.235667
     42 H23         1.6070    1.8690   -0.6880 hn        1 TGT      0.275000
@<TRIPOS>BOND
     1    1    2 1   
     2    1    7 1   
     3    1   16 1   
     4    2    3 1   
     5    2   23 1   
     6    2   28 1   
     7    3    4 1   
     8    3   20 1   
     9    3   29 1   
    10    4   11 1   
    11    5    8 1   
    12    5   12 1   
    13    5   25 1   
    14    6    7 1   
    15    6   25 1   
    16    6   30 1   
    17    6   31 1   
    18    7    9 1   
    19    7   11 1   
    20    8   13 1   
    21    8   22 1   
    22    9   14 1   
    23    9   15 1   
    24   10   32 1   
    25   10   33 1   
    26   10   34 1   
    27   10   40 1   
    28   12   35 1   
    29   17   24 1   
    30   18   24 1   
    31   19   24 1   
    32   20   40 1   
    33   21   40 1   
    34   22   36 1   
    35   22   37 1   
    36   22   41 1   
    37   23   38 1   
    38   23   39 1   
    39   23   42 1   
    40   26   27 1   
@<TRIPOS>SUBSTRUCTURE
     1 TGT         1 TEMP              0 ****  ****    0 ROOT
