@<TRIPOS>MOLECULE
molecule
   42    43     1     0     0
SMALL
bcc


@<TRIPOS>ATOM
      1 C1           0.0000     0.0000     0.0000 c3         1 TGT       0.151100
      2 C2           1.5330     0.0000     0.0000 c3         1 TGT      -0.061500
      3 C3           2.0080     0.0000     1.4580 c3         1 TGT       0.072100
      4 C4           1.3980    -1.1910     2.1870 c3         1 TGT       0.171100
      5 C5           2.0090    -2.4990     1.6920 c3         1 TGT       0.133900
      6 C6          -0.2210    -2.4990     0.0690 c3         1 TGT       0.044700
      7 C7          -0.5050    -1.1910     0.8030 c3         1 TGT       0.009800
      8 C8           3.5090    -2.4470     1.8420 c          1 TGT       0.326100
      9 C9          -2.0020    -1.0550     0.9030 c          1 TGT       0.879600
     10 C11          1.9490     3.5860     2.7520 c3         1 TGT      -0.136100
     11 O1          -0.0120    -1.2000     2.1250 os         1 TGT      -0.270600
     12 O2           1.4890    -3.5890     2.4550 oh         1 TGT      -0.555800
     13 O3           4.2210    -2.6440     0.8810 o          1 TGT      -0.471100
     14 O4          -2.6490    -1.5270     1.9810 o          1 TGT      -0.748300
     15 O5          -2.6210    -0.5220     0.0120 o          1 TGT      -0.748300
     16 O6          -0.4760    -0.0940    -1.3440 os         1 TGT      -0.504200
     17 O7           0.0710     2.4460    -1.7430 o          1 TGT      -0.779833
     18 O8          -2.1130     1.7200    -0.7070 o          1 TGT      -0.779833
     19 O9          -1.7950     1.2630    -3.1690 o          1 TGT      -0.779833
     20 O10          1.5870     1.2300     2.1040 os         1 TGT      -0.339900
     21 O11          3.4570     2.2550     1.5220 o          1 TGT      -0.604000
     22 N1           4.0570    -2.1810     3.0440 nz         1 TGT      -0.646400
     23 N2           2.0310     1.2010    -0.6840 nz         1 TGT      -0.778600
     24 P1          -1.1000     1.3420    -1.7190 p5         1 TGT       1.150900
     25 S1           1.5790    -2.7210    -0.0600 ss         1 TGT      -0.360200
     26 H1          -0.3590     0.9160     0.4520 h1         1 TGT       0.118700
     27 H2           1.6270    -0.9460    -0.5190 hx         1 TGT       0.187700
     28 H3           2.9110    -0.5340     1.1880 h1         1 TGT       0.062700
     29 H4           1.8990    -1.1180     3.1450 h1         1 TGT       0.012700
     30 H61         -0.5790    -2.3930    -0.9480 h1         1 TGT       0.123700
     31 H62         -0.6850    -3.3400     0.5700 h1         1 TGT       0.123700
     32 H111         2.0230     4.4060     2.0480 hc         1 TGT       0.083367
     33 H112         2.5910     3.7800     3.6020 hc         1 TGT       0.083367
     34 H113         0.9240     3.4900     3.0880 hc         1 TGT       0.083367
     35 HO2          1.8060    -4.4020     2.0980 ho         1 TGT       0.419000
     36 HN11         4.9740    -2.5780     3.0870 hn         1 TGT       0.450133
     37 HN12         4.1150    -1.1900     3.1720 hn         1 TGT       0.450133
     38 HN21         1.5640     2.0090    -0.3230 hn         1 TGT       0.447133
     39 HN22         3.0160     1.2880    -0.5310 hn         1 TGT       0.447133
     40 C10          2.3860     2.3080     2.0810 c          1 TGT       0.635100
     41 H13          3.4770    -2.5620     3.7660 hn         1 TGT       0.450133
     42 H23          1.8710     1.1140    -1.6680 hn         1 TGT       0.447133
@<TRIPOS>BOND
     1     1     2 1
     2     1     7 1
     3     1    16 1
     4     1    26 1
     5     2     3 1
     6     2    23 1
     7     2    27 1
     8     3     4 1
     9     3    20 1
    10     3    28 1
    11     4     5 1
    12     4    11 1
    13     4    29 1
    14     5     8 1
    15     5    12 1
    16     5    25 1
    17     6     7 1
    18     6    25 1
    19     6    30 1
    20     6    31 1
    21     7     9 1
    22     7    11 1
    23     8    13 2
    24     8    22 1
    25     9    14 1
    26     9    15 1
    27    40    10 1
    28    40    20 1
    29    40    21 2
    30    10    32 1
    31    10    33 1
    32    10    34 1
    33    12    35 1
    34    16    24 1
    35    17    24 1
    36    18    24 1
    37    19    24 1
    38    22    36 1
    39    22    37 1
    40    23    38 1
    41    23    39 1
    42    41    22 1
    43    42    23 1
@<TRIPOS>SUBSTRUCTURE
     1 TGT         1 TEMP              0 ****  ****    0 ROOT
