@<TRIPOS>MOLECULE
TGW
   31    33     1     0     0
SMALL
bcc


@<TRIPOS>ATOM
      1 Cl1          0.0000     0.0000     0.0000 cl         1 TGW      -0.009400
      2 CAB          1.7360     0.0000     0.0000 ca         1 TGW      -0.014600
      3 CAC          2.4280     0.0000     1.1980 ca         1 TGW      -0.099000
      4 CAD          3.8110    -0.0000     1.1970 ca         1 TGW      -0.022600
      5 Cl2          4.6800    -0.0000     2.7000 cl         1 TGW      -0.015400
      6 CAF          4.5020    -0.0010    -0.0010 ca         1 TGW      -0.099000
      7 CAG          3.8110    -0.0010    -1.1980 ca         1 TGW      -0.058000
      8 CAH          2.4280    -0.0060    -1.1980 ca         1 TGW      -0.130300
      9 CAI          1.6740    -0.0130    -2.5030 c3         1 TGW       0.261200
     10 NAJ          0.4540    -0.8040    -2.3480 ns         1 TGW      -0.263900
     11 CAK          0.5130    -2.1520    -2.4730 c          1 TGW       0.657100
     12 OAL         -0.4720    -2.8470    -2.3070 o          1 TGW      -0.661500
     13 CAM          1.8200    -2.7420    -2.8230 ca         1 TGW      -0.301900
     14 CAN          2.0860    -4.0950    -2.6360 ca         1 TGW       0.013000
     15 CAO          3.3440    -4.5630    -2.9850 ca         1 TGW      -0.240300
     16 CAP          4.2780    -3.6810    -3.4980 ca         1 TGW       0.430200
     17 NAQ          4.0000    -2.4020    -3.6670 nb         1 TGW      -0.573000
     18 CAR          2.8150    -1.9020    -3.3550 ca         1 TGW       0.503200
     19 NAS          2.5360    -0.5640    -3.5510 nh         1 TGW      -0.486300
     20 CAT          1.9570    -0.3360    -4.8820 c3         1 TGW       0.179100
     21 HAC          1.8870    -0.0120     2.1360 ha         1 TGW       0.128000
     22 HAF          5.5850     0.0000    -0.0010 ha         1 TGW       0.120000
     23 HAG          4.3530    -0.0040    -2.1360 ha         1 TGW       0.142000
     24 HAI          1.4040     1.0030    -2.7670 h2         1 TGW       0.054700
     25 HAJ         -0.4170    -0.3540    -2.1500 hn         1 TGW       0.215500
     26 HAN          1.3340    -4.7620    -2.2320 ha         1 TGW       0.130000
     27 HAO          3.5930    -5.6090    -2.8550 ha         1 TGW       0.119000
     28 HAP          5.2600    -4.0490    -3.7700 h4         1 TGW      -0.018900
     29 HAT1         1.0440    -0.9100    -4.9810 h1         1 TGW       0.013033
     30 HAT2         1.7370     0.7170    -5.0050 h1         1 TGW       0.013033
     31 HAT3         2.6640    -0.6490    -5.6410 h1         1 TGW       0.013033
@<TRIPOS>BOND
     1     1     2 1   
     2     2     3 ar  
     3     2     8 ar  
     4     3     4 ar  
     5     3    21 1   
     6     4     5 1   
     7     4     6 ar  
     8     6     7 ar  
     9     6    22 1   
    10     7     8 ar  
    11     7    23 1   
    12     8     9 1   
    13     9    10 1   
    14     9    19 1   
    15     9    24 1   
    16    10    11 1   
    17    10    25 1   
    18    11    12 2   
    19    11    13 1   
    20    13    14 ar  
    21    13    18 ar  
    22    14    15 ar  
    23    14    26 1   
    24    15    16 ar  
    25    15    27 1   
    26    16    17 ar  
    27    16    28 1   
    28    17    18 ar  
    29    18    19 1   
    30    19    20 1   
    31    20    29 1   
    32    20    30 1   
    33    20    31 1   
@<TRIPOS>SUBSTRUCTURE
     1 TGW         1 TEMP              0 ****  ****    0 ROOT
