@<TRIPOS>MOLECULE
molecule
   21    22     1     0     0
SMALL
bcc


@<TRIPOS>ATOM
      1 O13          0.0000     0.0000     0.0000 o          1 TGX      -0.625500
      2 C11          1.2140     0.0000     0.0000 c          1 TGX       0.698500
      3 C12          1.9260     0.0000     1.3240 c3         1 TGX      -0.071300
      4 N10          1.8430    -0.0040    -1.1720 ns         1 TGX      -0.456100
      5 C7           3.2250     0.0100    -1.3570 ca         1 TGX       0.057600
      6 C3           4.0990    -0.4180    -0.3570 ca         1 TGX      -0.007100
      7 C9           3.7470     0.4600    -2.5640 ca         1 TGX      -0.156000
      8 C5           5.1140     0.4790    -2.7670 ca         1 TGX      -0.097000
      9 C2           5.9750     0.0500    -1.7730 ca         1 TGX      -0.097300
     10 C6           7.4630     0.0710    -2.0040 c3         1 TGX      -0.045800
     11 C1           5.4670    -0.3990    -0.5670 ca         1 TGX      -0.074000
     12 S8           3.4450    -0.9870     1.1770 ss         1 TGX      -0.238000
     13 H121         1.2830    -0.4540     2.0680 h1         1 TGX       0.106200
     14 H122         2.1930     1.0190     1.5790 h1         1 TGX       0.106200
     15 H10          1.2740    -0.0180    -1.9950 hn         1 TGX       0.339500
     16 H9           3.0810     0.7980    -3.3480 ha         1 TGX       0.137000
     17 H1           6.1400    -0.7350     0.2120 ha         1 TGX       0.148000
     18 H5           5.5130     0.8320    -3.7100 ha         1 TGX       0.137000
     19 H61C         7.6630     0.2020    -3.0610 hc         1 TGX       0.046033
     20 H62C         7.8950    -0.8640    -1.6690 hc         1 TGX       0.046033
     21 H63C         7.9030     0.8910    -1.4500 hc         1 TGX       0.046033
@<TRIPOS>BOND
     1     1     2 2
     2     2     3 1
     3     2     4 1
     4     3    12 1
     5     4     5 1
     6     5     6 ar
     7     5     7 ar
     8     6    11 ar
     9     6    12 1
    10     7     8 ar
    11     8     9 ar
    12     9    10 1
    13     9    11 ar
    14     3    13 1
    15     3    14 1
    16     4    15 1
    17     7    16 1
    18    11    17 1
    19     8    18 1
    20    10    19 1
    21    10    20 1
    22    10    21 1
@<TRIPOS>SUBSTRUCTURE
     1 TGX         1 TEMP              0 ****  ****    0 ROOT
