@<TRIPOS>MOLECULE
TGX
   21    22     1     0     0
SMALL
bcc


@<TRIPOS>ATOM
      1 O13          0.0000     0.0000     0.0000 o          1 TGX      -0.664500
      2 C11          1.2140     0.0000     0.0000 c          1 TGX       0.592500
      3 C12          1.9260     0.0000     1.3240 c3         1 TGX       0.023700
      4 N10          1.8430    -0.0040    -1.1720 ns         1 TGX      -0.000100
      5 C7           3.2250     0.0100    -1.3570 ca         1 TGX      -0.090400
      6 C3           4.0990    -0.4180    -0.3570 ca         1 TGX       0.013900
      7 C9           3.7470     0.4600    -2.5640 ca         1 TGX      -0.126000
      8 C5           5.1140     0.4790    -2.7670 ca         1 TGX      -0.064000
      9 C2           5.9750     0.0500    -1.7730 ca         1 TGX      -0.104300
     10 C6           7.4630     0.0710    -2.0040 c3         1 TGX       0.067200
     11 C1           5.4670    -0.3990    -0.5670 ca         1 TGX      -0.033000
     12 S8           3.4450    -0.9870     1.1770 ss         1 TGX      -0.318000
     13 H121         1.2830    -0.4540     2.0680 h1         1 TGX       0.074700
     14 H122         2.1930     1.0190     1.5790 h1         1 TGX       0.074700
     15 H10          1.2740    -0.0180    -1.9950 hn         1 TGX       0.181500
     16 H9           3.0810     0.7980    -3.3480 ha         1 TGX       0.113000
     17 H1           6.1400    -0.7350     0.2120 ha         1 TGX       0.123000
     18 H5           5.5130     0.8320    -3.7100 ha         1 TGX       0.109000
     19 H61C         7.6630     0.2020    -3.0610 hc         1 TGX       0.009700
     20 H62C         7.8950    -0.8640    -1.6690 hc         1 TGX       0.009700
     21 H63C         7.9030     0.8910    -1.4500 hc         1 TGX       0.009700
@<TRIPOS>BOND
     1     1     2 2   
     2     2     3 1   
     3     2     4 1   
     4     3    12 1   
     5     3    13 1   
     6     3    14 1   
     7     4     5 1   
     8     4    15 1   
     9     5     6 ar  
    10     5     7 ar  
    11     6    11 ar  
    12     6    12 1   
    13     7     8 ar  
    14     7    16 1   
    15     8     9 ar  
    16     8    18 1   
    17     9    10 1   
    18     9    11 ar  
    19    10    19 1   
    20    10    20 1   
    21    10    21 1   
    22    11    17 1   
@<TRIPOS>SUBSTRUCTURE
     1 TGX         1 TEMP              0 ****  ****    0 ROOT
