@<TRIPOS>MOLECULE
molecule
   15    15     1     0     0
SMALL
bcc


@<TRIPOS>ATOM
      1 C1           0.0000     0.0000     0.0000 ca         1 TH0      -0.198000
      2 C2           1.3950     0.0000     0.0000 ca         1 TH0       0.163100
      3 O1           2.0440     0.0010    -1.1990 oh         1 TH0      -0.510100
      4 S1           3.8800     0.0010     1.2490 sh         1 TH0      -0.358700
      5 C3           2.0930     0.0000     1.2070 ca         1 TH0       0.008900
      6 C4           1.3950     0.0000     2.4160 ca         1 TH0      -0.071000
      7 C5           0.0010     0.0000     2.4160 ca         1 TH0      -0.172000
      8 C6          -0.6970     0.0000     1.2080 ca         1 TH0       0.138100
      9 O3          -2.0580    -0.0000     1.2080 oh         1 TH0      -0.520100
     10 H1          -0.5420     0.0000    -0.9380 ha         1 TH0       0.155000
     11 HO1          2.0720    -0.8770    -1.5420 ho         1 TH0       0.430000
     12 HS1          4.3140     1.2090     1.5850 hs         1 TH0       0.210800
     13 H4           1.9370     0.0000     3.3540 ha         1 TH0       0.150000
     14 H5          -0.5410     0.0010     3.3540 ha         1 TH0       0.147000
     15 HO3         -2.3730     0.8880     1.1670 ho         1 TH0       0.425000
@<TRIPOS>BOND
     1     1     2 ar
     2     1     8 ar
     3     1    10 1
     4     2     3 1
     5     2     5 ar
     6     3    11 1
     7     4     5 1
     8     4    12 1
     9     5     6 ar
    10     6     7 ar
    11     6    13 1
    12     7     8 ar
    13     7    14 1
    14     8     9 1
    15     9    15 1
@<TRIPOS>SUBSTRUCTURE
     1 TH0         1 TEMP              0 ****  ****    0 ROOT
