@<TRIPOS>MOLECULE
TH0
   15    15     1     0     0
SMALL
bcc


@<TRIPOS>ATOM
      1 C1         -0.0970    0.1180    0.0590 ca        1 TH0     -0.267000
      2 C2          1.3010   -0.0140    0.0020 ca        1 TH0      0.219100
      3 O1          1.8440   -0.0450   -1.2530 oh        1 TH0     -0.494100
      4 S1          3.7590   -0.3440    1.0980 sh        1 TH0     -0.301700
      5 C3          2.0740   -0.1040    1.1760 ca        1 TH0     -0.151100
      6 C4          1.4170   -0.0680    2.4130 ca        1 TH0     -0.016000
      7 C5          0.0410    0.0630    2.5020 ca        1 TH0     -0.207000
      8 C6         -0.7120    0.1560    1.3130 ca        1 TH0      0.188100
      9 O3         -2.0700    0.2850    1.4610 oh        1 TH0     -0.490100
     10 H1         -0.6750    0.1850   -0.8710 ha        1 TH0      0.156000
     11 HO1         2.8090   -0.1720   -1.1580 ho        1 TH0      0.444000
     12 HS1         4.1650    0.8970    1.3260 hs        1 TH0      0.189800
     13 H4          2.0160   -0.1500    3.3360 ha        1 TH0      0.148000
     14 H5         -0.4740    0.0920    3.4720 ha        1 TH0      0.157000
     15 HO3        -2.4680    0.3320    0.5790 ho        1 TH0      0.426000
@<TRIPOS>BOND
     1    1    2 ar  
     2    1    8 ar  
     3    1   10 1   
     4    2    3 1   
     5    2    5 ar  
     6    3   11 1   
     7    4    5 1   
     8    4   12 1   
     9    5    6 ar  
    10    6    7 ar  
    11    6   13 1   
    12    7    8 ar  
    13    7   14 1   
    14    8    9 1   
    15    9   15 1   
@<TRIPOS>SUBSTRUCTURE
     1 TH0         1 TEMP              0 ****  ****    0 ROOT
