@<TRIPOS>MOLECULE
TH1
   38    40     1     0     0
SMALL
bcc


@<TRIPOS>ATOM
      1 C1         -0.3570    0.0480    0.3060 c3        1 TH1      0.101800
      2 C2          0.9710   -0.7160    0.4680 c3        1 TH1      0.094100
      3 O2          0.7670   -2.1160    0.4190 oh        1 TH1     -0.604800
      4 C3          1.5460   -0.4280    1.8650 c3        1 TH1      0.105100
      5 O3          2.8440   -0.9810    2.0020 oh        1 TH1     -0.606800
      6 C4          1.6930    1.0900    2.0610 c3        1 TH1      0.123100
      7 O4          2.0550    1.3850    3.3980 oh        1 TH1     -0.595800
      8 C5          0.3440    1.7730    1.7960 c3        1 TH1      0.098100
      9 O5         -0.1300    1.4500    0.4850 os        1 TH1     -0.413600
     10 C6          0.4910    3.2980    1.8140 c3        1 TH1      0.141400
     11 O6         -0.7620    3.9330    1.7020 oh        1 TH1     -0.594800
     12 C7         -0.9720   -0.1050   -1.0530 cc        1 TH1      0.349200
     13 N1         -0.3140   -0.4590   -2.1460 nd        1 TH1     -0.527100
     14 C8         -1.2000   -0.5060   -3.2320 ca        1 TH1      0.084400
     15 C9         -0.8600   -0.8450   -4.5570 ca        1 TH1     -0.075000
     16 C10        -1.8490   -0.8480   -5.5310 ca        1 TH1     -0.074300
     17 C11        -3.1810   -0.5150   -5.1970 ca        1 TH1     -0.116000
     18 C12        -3.5350   -0.1790   -3.9020 ca        1 TH1     -0.087000
     19 C13        -2.5560   -0.1690   -2.9050 ca        1 TH1     -0.098100
     20 S1         -2.6690    0.1930   -1.2620 ss        1 TH1      0.009900
     21 C14        -1.5270   -1.1970   -6.9340 c3        1 TH1     -0.056800
     22 H1         -1.0920   -0.3170    1.0810 h1        1 TH1      0.067700
     23 H2          1.7060   -0.3910   -0.3190 h1        1 TH1      0.082700
     24 HO2         0.6090   -2.3500   -0.5040 ho        1 TH1      0.425000
     25 H3          0.8700   -0.8610    2.6550 h1        1 TH1      0.062700
     26 HO3         2.7660   -1.9210    1.7900 ho        1 TH1      0.427000
     27 H4          2.4780    1.4840    1.3570 h1        1 TH1      0.064700
     28 HO4         2.8510    0.8690    3.5840 ho        1 TH1      0.426000
     29 H5         -0.4120    1.4470    2.5620 h1        1 TH1      0.070700
     30 H61         0.9020    3.6110    2.8110 h1        1 TH1      0.065700
     31 H62         1.1750    3.6260    0.9870 h1        1 TH1      0.065700
     32 HO6        -1.1400    3.6670    0.8540 ho        1 TH1      0.410000
     33 H9          0.1820   -1.0990   -4.8070 ha        1 TH1      0.152000
     34 H11        -3.9450   -0.5260   -5.9890 ha        1 TH1      0.138000
     35 H12        -4.5760    0.0800   -3.6570 ha        1 TH1      0.142000
     36 H141       -0.4460   -1.4540   -7.0540 hc        1 TH1      0.048033
     37 H142       -2.1380   -2.0740   -7.2640 hc        1 TH1      0.048033
     38 H143       -1.7610   -0.3350   -7.6090 hc        1 TH1      0.048033
@<TRIPOS>BOND
     1    1    2 1   
     2    1    9 1   
     3    1   12 1   
     4    1   22 1   
     5    2    3 1   
     6    2    4 1   
     7    2   23 1   
     8    3   24 1   
     9    4    5 1   
    10    4    6 1   
    11    4   25 1   
    12    5   26 1   
    13    6    7 1   
    14    6    8 1   
    15    6   27 1   
    16    7   28 1   
    17    8    9 1   
    18    8   10 1   
    19    8   29 1   
    20   10   11 1   
    21   10   30 1   
    22   10   31 1   
    23   11   32 1   
    24   12   13 2   
    25   12   20 1   
    26   13   14 1   
    27   14   15 ar  
    28   14   19 ar  
    29   15   16 ar  
    30   15   33 1   
    31   16   17 ar  
    32   16   21 1   
    33   17   18 ar  
    34   17   34 1   
    35   18   19 ar  
    36   18   35 1   
    37   19   20 1   
    38   21   36 1   
    39   21   37 1   
    40   21   38 1   
@<TRIPOS>SUBSTRUCTURE
     1 TH1         1 TEMP              0 ****  ****    0 ROOT
