@<TRIPOS>MOLECULE
molecule
   38    40     1     0     0
SMALL
bcc


@<TRIPOS>ATOM
      1 C1           0.0000     0.0000     0.0000 c3         1 TH1       0.136800
      2 C2           1.5310     0.0000     0.0000 c3         1 TH1       0.112100
      3 O2           2.0080    -1.1670    -0.6710 oh         1 TH1      -0.587800
      4 C3           2.0330     0.0000     1.4470 c3         1 TH1       0.105100
      5 O3           3.4600     0.0730     1.4580 oh         1 TH1      -0.607800
      6 C4           1.4520     1.2140     2.1780 c3         1 TH1       0.100100
      7 O4           1.8560     1.1840     3.5490 oh         1 TH1      -0.601800
      8 C5          -0.0760     1.1670     2.0940 c3         1 TH1       0.145100
      9 O5          -0.4760     1.1380     0.7220 os         1 TH1      -0.396600
     10 C6          -0.6620     2.4070     2.7700 c3         1 TH1       0.152400
     11 O6          -2.0880     2.3080     2.7960 oh         1 TH1      -0.596800
     12 C7          -0.5030     0.0600    -1.4190 cc         1 TH1       0.409200
     13 N1          -1.0000    -0.9360    -2.0490 nd         1 TH1      -0.562100
     14 C8          -1.4100    -0.7370    -3.3160 ca         1 TH1       0.126400
     15 C9          -1.9880    -1.6440    -4.2280 ca         1 TH1      -0.072000
     16 C10         -2.3360    -1.2360    -5.4800 ca         1 TH1      -0.082300
     17 C11         -2.1300     0.0760    -5.8820 ca         1 TH1      -0.117000
     18 C12         -1.5670     0.9840    -5.0120 ca         1 TH1      -0.085000
     19 C13         -1.2050     0.5850    -3.7280 ca         1 TH1      -0.066100
     20 S1          -0.4850     1.4660    -2.3850 ss         1 TH1      -0.075100
     21 C14         -2.9510    -2.2210    -6.4400 c3         1 TH1      -0.046800
     22 H1          -0.3590    -0.9040     0.4770 h1         1 TH1       0.086700
     23 H2           1.8910     0.8870    -0.5060 h1         1 TH1       0.056700
     24 HO2          2.8110    -0.9640    -1.1220 ho         1 TH1       0.415000
     25 H3           1.7090    -0.9080     1.9420 h1         1 TH1       0.063700
     26 HO3          3.8090    -0.6520     1.9480 ho         1 TH1       0.416000
     27 H4           1.8110     2.1220     1.7090 h1         1 TH1       0.056700
     28 HO4          2.5420     1.8160     3.6880 ho         1 TH1       0.414000
     29 H5          -0.4360     0.2740     2.5920 h1         1 TH1       0.067700
     30 H61         -0.3720     3.2920     2.2160 h1         1 TH1       0.037700
     31 H62         -0.2870     2.4780     3.7840 h1         1 TH1       0.037700
     32 HO6         -2.4340     2.9150     3.4280 ho         1 TH1       0.403000
     33 H9          -2.1560    -2.6720    -3.9320 ha         1 TH1       0.147000
     34 H11         -2.4110     0.3870    -6.8800 ha         1 TH1       0.136000
     35 H12         -1.4060     2.0080    -5.3270 ha         1 TH1       0.136000
     36 H141        -3.6630    -2.8440    -5.9120 hc         1 TH1       0.045367
     37 H142        -3.4600    -1.6840    -7.2320 hc         1 TH1       0.045367
     38 H143        -2.1740    -2.8430    -6.8670 hc         1 TH1       0.045367
@<TRIPOS>BOND
     1     1     2 1
     2     1     9 1
     3     1    12 1
     4     1    22 1
     5     2     3 1
     6     2     4 1
     7     2    23 1
     8     3    24 1
     9     4     5 1
    10     4     6 1
    11     4    25 1
    12     5    26 1
    13     6     7 1
    14     6     8 1
    15     6    27 1
    16     7    28 1
    17     8     9 1
    18     8    10 1
    19     8    29 1
    20    10    11 1
    21    10    30 1
    22    10    31 1
    23    11    32 1
    24    12    13 2
    25    12    20 1
    26    13    14 1
    27    14    15 ar
    28    14    19 ar
    29    15    16 ar
    30    15    33 1
    31    16    17 ar
    32    16    21 1
    33    17    18 ar
    34    17    34 1
    35    18    19 ar
    36    18    35 1
    37    19    20 1
    38    21    36 1
    39    21    37 1
    40    21    38 1
@<TRIPOS>SUBSTRUCTURE
     1 TH1         1 TEMP              0 ****  ****    0 ROOT
