@<TRIPOS>MOLECULE
TH2
   59    62     1     0     0
SMALL
bcc


@<TRIPOS>ATOM
      1 C1         -0.1670    0.1180    0.0710 c3        1 TH2     -0.070400
      2 C2          1.3310    0.3190    0.0500 c3        1 TH2     -0.181400
      3 C3          1.9190    0.2330    1.4290 c         1 TH2      0.573300
      4 O3          2.8930    0.9170    1.7710 o         1 TH2     -0.550100
      5 C4          1.2900   -0.7420    2.3250 ce        1 TH2     -0.278200
      6 C5          0.1600   -1.4070    2.0240 c2        1 TH2     -0.015400
      7 C6         -0.3590   -2.4530    2.9520 c3        1 TH2     -0.055200
      8 C7         -1.8420   -2.3070    3.2090 c3        1 TH2     -0.073400
      9 C8         -2.6090   -2.2700    1.8990 c3        1 TH2     -0.048700
     10 C9         -2.1140   -1.0980    1.0360 c3        1 TH2     -0.046700
     11 C10        -0.6010   -1.1970    0.7370 c3        1 TH2     -0.017800
     12 C11        -2.9390   -0.9360   -0.2370 c3        1 TH2     -0.074400
     13 C12        -4.4400   -0.8960    0.0040 c3        1 TH2     -0.065400
     14 C13        -4.8830   -2.1000    0.8150 c3        1 TH2     -0.068000
     15 C14        -4.0910   -2.0730    2.1420 c3        1 TH2     -0.066700
     16 C15        -4.8430   -3.0390    3.0480 c3        1 TH2     -0.071400
     17 C16        -6.3120   -2.8710    2.6540 c3        1 TH2     -0.084400
     18 C17        -6.3390   -2.0460    1.3480 c3        1 TH2      0.153100
     19 O17        -7.2730   -2.6740    0.4740 os        1 TH2     -0.449900
     20 C18        -4.6990   -3.3820    0.0210 c3        1 TH2     -0.077100
     21 C20        -7.9450   -1.8960   -0.4470 c         1 TH2      0.639100
     22 O20        -7.6550   -0.6980   -0.4900 o         1 TH2     -0.572000
     23 C21       -10.3130   -2.1320   -1.1830 c3        1 TH2     -0.201400
     24 C22        -8.9140   -2.6920   -1.2590 c3        1 TH2     -0.109400
     25 C23       -11.2200   -2.8120   -2.2320 c         1 TH2      0.913600
     26 O23       -10.6820   -3.2850   -3.2740 o         1 TH2     -0.842800
     27 O24       -12.4590   -2.8440   -1.9890 o         1 TH2     -0.842800
     28 C19        -0.2800   -2.3600   -0.1980 c3        1 TH2     -0.085100
     29 H1C1       -0.6420    0.9780    0.6140 hc        1 TH2      0.053200
     30 H1C2       -0.5470    0.1350   -0.9840 hc        1 TH2      0.053200
     31 H2C1        1.8210   -0.4710   -0.5820 hc        1 TH2      0.068700
     32 H2C2        1.5740    1.3150   -0.4070 hc        1 TH2      0.068700
     33 H4          1.8150   -0.9080    3.2800 ha        1 TH2      0.143000
     34 H6C1        0.1940   -2.4210    3.9290 hc        1 TH2      0.052200
     35 H6C2       -0.1570   -3.4570    2.4850 hc        1 TH2      0.052200
     36 H7C1       -2.2030   -3.1690    3.8280 hc        1 TH2      0.046700
     37 H7C2       -2.0380   -1.3690    3.7910 hc        1 TH2      0.046700
     38 H8         -2.4420   -3.2400    1.3570 hc        1 TH2      0.057700
     39 H9         -2.2610   -0.1610    1.6500 hc        1 TH2      0.048700
     40 H111       -2.6410    0.0210   -0.7420 hc        1 TH2      0.039700
     41 H112       -2.7060   -1.7730   -0.9460 hc        1 TH2      0.039700
     42 H121       -4.9830   -0.8800   -0.9780 hc        1 TH2      0.056200
     43 H122       -4.7140    0.0450    0.5480 hc        1 TH2      0.056200
     44 H14        -4.2180   -1.0430    2.5900 hc        1 TH2      0.045700
     45 H151       -4.6790   -2.7940    4.1260 hc        1 TH2      0.037200
     46 H152       -4.5030   -4.0910    2.8800 hc        1 TH2      0.037200
     47 H161       -6.7980   -3.8640    2.4870 hc        1 TH2      0.055200
     48 H162       -6.8830   -2.3340    3.4500 hc        1 TH2      0.055200
     49 H17        -6.6420   -0.9820    1.5380 h1        1 TH2      0.071700
     50 H181       -3.6420   -3.5210   -0.3030 hc        1 TH2      0.038033
     51 H182       -5.3490   -3.3490   -0.8880 hc        1 TH2      0.038033
     52 H183       -5.0060   -4.2610    0.6370 hc        1 TH2      0.038033
     53 H211      -10.7480   -2.2890   -0.1660 hc        1 TH2      0.037200
     54 H212      -10.3040   -1.0340   -1.3940 hc        1 TH2      0.037200
     55 H221       -8.5750   -2.6720   -2.3330 hc        1 TH2      0.087700
     56 H222       -8.9080   -3.7610   -0.9200 hc        1 TH2      0.087700
     57 H191        0.8260   -2.4980   -0.2730 hc        1 TH2      0.040367
     58 H192       -0.7300   -3.3080    0.1820 hc        1 TH2      0.040367
     59 H193       -0.6780   -2.1600   -1.2210 hc        1 TH2      0.040367
@<TRIPOS>BOND
     1    1    2 1   
     2    1   11 1   
     3    1   29 1   
     4    1   30 1   
     5    2    3 1   
     6    2   31 1   
     7    2   32 1   
     8    3    4 2   
     9    3    5 1   
    10    5    6 2   
    11    5   33 1   
    12    6    7 1   
    13    6   11 1   
    14    7    8 1   
    15    7   34 1   
    16    7   35 1   
    17    8    9 1   
    18    8   36 1   
    19    8   37 1   
    20    9   10 1   
    21    9   15 1   
    22    9   38 1   
    23   10   11 1   
    24   10   12 1   
    25   10   39 1   
    26   11   28 1   
    27   12   13 1   
    28   12   40 1   
    29   12   41 1   
    30   13   14 1   
    31   13   42 1   
    32   13   43 1   
    33   14   15 1   
    34   14   18 1   
    35   14   20 1   
    36   15   16 1   
    37   15   44 1   
    38   16   17 1   
    39   16   45 1   
    40   16   46 1   
    41   17   18 1   
    42   17   47 1   
    43   17   48 1   
    44   18   19 1   
    45   18   49 1   
    46   19   21 1   
    47   20   50 1   
    48   20   51 1   
    49   20   52 1   
    50   21   22 2   
    51   21   24 1   
    52   23   24 1   
    53   23   25 1   
    54   23   53 1   
    55   23   54 1   
    56   24   55 1   
    57   24   56 1   
    58   25   26 1   
    59   25   27 1   
    60   28   57 1   
    61   28   58 1   
    62   28   59 1   
@<TRIPOS>SUBSTRUCTURE
     1 TH2         1 TEMP              0 ****  ****    0 ROOT
