@<TRIPOS>MOLECULE
molecule
   59    62     1     0     0
SMALL
bcc


@<TRIPOS>ATOM
      1 C1           0.0000     0.0000     0.0000 c3         1 TH2      -0.065400
      2 C2           1.5280     0.0000     0.0000 c3         1 TH2      -0.180400
      3 C3           1.9820     0.0000     1.4460 c          1 TH2       0.573300
      4 O3           2.8100     0.7860     1.8560 o          1 TH2      -0.535100
      5 C4           1.3670    -1.0020     2.3230 ce         1 TH2      -0.274200
      6 C5           0.1970    -1.5460     1.9940 c2         1 TH2      -0.030400
      7 C6          -0.3830    -2.5900     2.9310 c3         1 TH2      -0.053200
      8 C7          -1.8430    -2.2300     3.2200 c3         1 TH2      -0.074400
      9 C8          -2.5990    -2.1020     1.8950 c3         1 TH2      -0.065700
     10 C9          -2.0320    -0.9120     1.1060 c3         1 TH2      -0.049700
     11 C10         -0.5640    -1.1990     0.7650 c3         1 TH2      -0.030800
     12 C11         -2.8060    -0.6690    -0.1870 c3         1 TH2      -0.082400
     13 C12         -4.3110    -0.5020     0.0740 c3         1 TH2      -0.062400
     14 C13         -4.7830    -1.7580     0.7810 c3         1 TH2      -0.065000
     15 C14         -4.0750    -1.8010     2.1630 c3         1 TH2      -0.068700
     16 C15         -4.8550    -2.9040     2.8900 c3         1 TH2      -0.078400
     17 C16         -6.3260    -2.6130     2.4880 c3         1 TH2      -0.097400
     18 C17         -6.2630    -1.8240     1.1420 c3         1 TH2       0.165100
     19 O17         -7.0110    -2.5240     0.1130 os         1 TH2      -0.443900
     20 C18         -4.3950    -2.9890    -0.0380 c3         1 TH2      -0.080100
     21 C20         -8.3090    -2.2400    -0.0830 c          1 TH2       0.620100
     22 O20         -8.8530    -1.4020     0.5960 o          1 TH2      -0.566000
     23 C21        -10.5290    -2.4570    -1.1660 c3         1 TH2      -0.175400
     24 C22         -9.0860    -2.9660    -1.1520 c3         1 TH2      -0.102400
     25 C23        -11.3050    -3.1840    -2.2350 c          1 TH2       0.890600
     26 O23        -10.7610    -4.0210    -2.9140 o          1 TH2      -0.852300
     27 O24        -12.6030    -2.9000    -2.4310 o          1 TH2      -0.852300
     28 C19         -0.5200    -2.4160    -0.1590 c3         1 TH2      -0.088100
     29 H1C1        -0.3520    -0.0390    -1.0240 hc         1 TH2       0.053200
     30 H1C2        -0.3520     0.9120     0.4660 hc         1 TH2       0.053200
     31 H2C1         1.8950    -0.8880    -0.5000 hc         1 TH2       0.067200
     32 H2C2         1.8950     0.8880    -0.5000 hc         1 TH2       0.067200
     33 H4           1.8660    -1.3010     3.2370 ha         1 TH2       0.147000
     34 H6C1        -0.3360    -3.5650     2.4610 hc         1 TH2       0.052700
     35 H6C2         0.1780    -2.5990     3.8570 hc         1 TH2       0.052700
     36 H7C1        -1.8840    -1.2870     3.7510 hc         1 TH2       0.048200
     37 H7C2        -2.2960    -3.0100     3.8200 hc         1 TH2       0.048200
     38 H8          -2.5020    -3.0140     1.3190 hc         1 TH2       0.072700
     39 H9          -2.0850    -0.0220     1.7210 hc         1 TH2       0.054700
     40 H111        -2.6560    -1.5120    -0.8510 hc         1 TH2       0.045200
     41 H112        -2.4290     0.2300    -0.6590 hc         1 TH2       0.045200
     42 H121        -4.8370    -0.3880    -0.8660 hc         1 TH2       0.049700
     43 H122        -4.4810     0.3620     0.7060 hc         1 TH2       0.049700
     44 H14         -4.1860    -0.8540     2.6750 hc         1 TH2       0.057700
     45 H151        -4.5500    -3.8820     2.5390 hc         1 TH2       0.042700
     46 H152        -4.7280    -2.8170     3.9620 hc         1 TH2       0.042700
     47 H161        -6.8060    -2.0100     3.2490 hc         1 TH2       0.057200
     48 H162        -6.8630    -3.5430     2.3480 hc         1 TH2       0.057200
     49 H17         -6.6550    -0.8240     1.2800 h1         1 TH2       0.068700
     50 H181        -4.8800    -3.8660     0.3740 hc         1 TH2       0.041033
     51 H182        -4.7080    -2.8530    -1.0660 hc         1 TH2       0.041033
     52 H183        -3.3200    -3.1220    -0.0030 hc         1 TH2       0.041033
     53 H211       -10.5350    -1.3940    -1.3750 hc         1 TH2       0.045700
     54 H212       -10.9860    -2.6390    -0.2010 hc         1 TH2       0.045700
     55 H221        -9.0790    -4.0290    -0.9430 hc         1 TH2       0.076700
     56 H222        -8.6290    -2.7840    -2.1170 hc         1 TH2       0.076700
     57 H191        -1.0900    -3.2250     0.2820 hc         1 TH2       0.041367
     58 H192         0.5080    -2.7300    -0.2950 hc         1 TH2       0.041367
     59 H193        -0.9480    -2.1550    -1.1200 hc         1 TH2       0.041367
@<TRIPOS>BOND
     1     1     2 1
     2     1    11 1
     3     1    29 1
     4     1    30 1
     5     2     3 1
     6     2    31 1
     7     2    32 1
     8     3     4 2
     9     3     5 1
    10     5     6 2
    11     5    33 1
    12     6     7 1
    13     6    11 1
    14     7     8 1
    15     7    34 1
    16     7    35 1
    17     8     9 1
    18     8    36 1
    19     8    37 1
    20     9    10 1
    21     9    15 1
    22     9    38 1
    23    10    11 1
    24    10    12 1
    25    10    39 1
    26    11    28 1
    27    12    13 1
    28    12    40 1
    29    12    41 1
    30    13    14 1
    31    13    42 1
    32    13    43 1
    33    14    15 1
    34    14    18 1
    35    14    20 1
    36    15    16 1
    37    15    44 1
    38    16    17 1
    39    16    45 1
    40    16    46 1
    41    17    18 1
    42    17    47 1
    43    17    48 1
    44    18    19 1
    45    18    49 1
    46    19    21 1
    47    20    50 1
    48    20    51 1
    49    20    52 1
    50    21    22 2
    51    21    24 1
    52    23    24 1
    53    23    25 1
    54    23    53 1
    55    23    54 1
    56    24    55 1
    57    24    56 1
    58    25    26 1
    59    25    27 1
    60    28    57 1
    61    28    58 1
    62    28    59 1
@<TRIPOS>SUBSTRUCTURE
     1 TH2         1 TEMP              0 ****  ****    0 ROOT
