@<TRIPOS>MOLECULE
TH4
   25    26     1     0     0
SMALL
bcc


@<TRIPOS>ATOM
      1 C5           0.0000     0.0000     0.0000 ca         1 TH4      -0.052000
      2 C6           1.3850     0.0000     0.0000 ca         1 TH4      -0.216300
      3 C1           2.0590     0.0000     1.2090 ca         1 TH4       0.410300
      4 Cl7          3.7950     0.0010     1.2240 cl         1 TH4      -0.079000
      5 N2           1.3970    -0.0010     2.3500 nb         1 TH4      -0.558000
      6 C3           0.0780    -0.0000     2.3860 ca         1 TH4       0.441200
      7 C4          -0.6610    -0.0000     1.2190 ca         1 TH4      -0.259600
      8 C8          -2.1670     0.0050     1.2710 c3         1 TH4       0.231100
      9 N9          -2.6600    -1.3740     1.2840 nh         1 TH4      -0.384600
     10 C13         -2.9470    -2.0710     0.0500 c3         1 TH4       0.136800
     11 C12         -3.4490    -3.4970     0.3020 c3         1 TH4       0.057700
     12 S11         -3.4520    -3.6580     2.1150 ss         1 TH4      -0.300300
     13 C10         -2.8530    -2.0290     2.4490 c2         1 TH4       0.562100
     14 N14         -2.6320    -1.5280     3.6530 ne         1 TH4      -0.402700
     15 C15         -2.8630    -2.2840     4.7540 cg         1 TH4       0.281800
     16 N16         -3.0600    -2.9330     5.6650 n1         1 TH4      -0.412800
     17 H5          -0.5420     0.0000    -0.9380 ha         1 TH4       0.109000
     18 H6           1.9270     0.0000    -0.9380 ha         1 TH4       0.125000
     19 H3          -0.4380    -0.0010     3.3390 h4         1 TH4       0.007100
     20 H8          -2.5540     0.5880     0.4440 h1         1 TH4       0.045200
     21 H8A         -2.4940     0.4420     2.2060 h1         1 TH4       0.045200
     22 H13         -2.0440    -2.5270    -0.3380 h1         1 TH4       0.038700
     23 H13A        -3.3700    -1.3870    -0.6750 h1         1 TH4       0.038700
     24 H12         -4.5270    -3.5010     0.4060 h1         1 TH4       0.068200
     25 H12A        -3.1420    -4.1490    -0.5070 h1         1 TH4       0.068200
@<TRIPOS>BOND
     1     1     2 ar  
     2     1     7 ar  
     3     1    17 1   
     4     2     3 ar  
     5     2    18 1   
     6     3     4 1   
     7     3     5 ar  
     8     5     6 ar  
     9     6     7 ar  
    10     6    19 1   
    11     7     8 1   
    12     8     9 1   
    13     8    20 1   
    14     8    21 1   
    15     9    10 1   
    16     9    13 1   
    17    10    11 1   
    18    10    22 1   
    19    10    23 1   
    20    11    12 1   
    21    11    24 1   
    22    11    25 1   
    23    12    13 1   
    24    13    14 2   
    25    14    15 1   
    26    15    16 3   
@<TRIPOS>SUBSTRUCTURE
     1 TH4         1 TEMP              0 ****  ****    0 ROOT
