@<TRIPOS>MOLECULE
TH7
   16    16     1     0     0
SMALL
bcc


@<TRIPOS>ATOM
      1 C1          0.1800   -0.1360    0.1340 ca        1 TH7     -0.293000
      2 O1          2.4180    0.1090   -0.7650 oh        1 TH7     -0.513100
      3 S1          3.7900    0.3070    1.8930 ss        1 TH7      0.092900
      4 C2          1.5590    0.0430    0.3100 ca        1 TH7      0.178100
      5 C3          2.1320    0.1660    1.5900 ca        1 TH7     -0.121100
      6 O3         -1.9920   -0.4000    1.1920 oh        1 TH7     -0.490100
      7 C4          1.2760    0.1020    2.7000 ca        1 TH7     -0.041000
      8 O4          4.3540    1.3040    0.6350 oh        1 TH7     -0.518800
      9 C5         -0.0880   -0.1010    2.5610 ca        1 TH7     -0.183000
     10 C6         -0.6340   -0.2140    1.2690 ca        1 TH7      0.168100
     11 H1         -0.2480   -0.2190   -0.8740 ha        1 TH7      0.138000
     12 HO3        -2.2370   -0.4540    0.2560 ho        1 TH7      0.422000
     13 H4          1.7070    0.2160    3.7090 ha        1 TH7      0.150000
     14 H5         -0.7500   -0.1630    3.4360 ha        1 TH7      0.157000
     15 H51         1.8930    0.0610   -1.5770 ho        1 TH7      0.431000
     16 H6          4.4440    0.7510   -0.1480 ho        1 TH7      0.423000
@<TRIPOS>BOND
     1    1    4 ar  
     2    1   10 ar  
     3    1   11 1   
     4    2    4 1   
     5    2   15 1   
     6    3    5 1   
     7    3    8 1   
     8    4    5 ar  
     9    5    7 ar  
    10    6   10 1   
    11    6   12 1   
    12    7    9 ar  
    13    7   13 1   
    14    8   16 1   
    15    9   10 ar  
    16    9   14 1   
@<TRIPOS>SUBSTRUCTURE
     1 TH7         1 TEMP              0 ****  ****    0 ROOT
