@<TRIPOS>MOLECULE
molecule
   16    16     1     0     0
SMALL
bcc


@<TRIPOS>ATOM
      1 C1           0.0000     0.0000     0.0000 ca         1 TH7      -0.214000
      2 O1           2.0660     0.0000    -1.1780 oh         1 TH7      -0.505100
      3 S1           3.8420    -0.0010     1.2120 ss         1 TH7       0.032900
      4 C2           1.3850     0.0000     0.0000 ca         1 TH7       0.179100
      5 C3           2.0800     0.0000     1.2080 ca         1 TH7      -0.055100
      6 O3          -2.0520     0.0020     1.2020 oh         1 TH7      -0.521100
      7 C4           1.3820     0.0010     2.4070 ca         1 TH7      -0.044000
      8 O4           4.1850     1.4820     1.2120 oh         1 TH7      -0.592800
      9 C5           0.0000     0.0000     2.4040 ca         1 TH7      -0.183000
     10 C6          -0.6920     0.0010     1.2020 ca         1 TH7       0.151100
     11 H1          -0.5420     0.0520    -0.9370 ha         1 TH7       0.153000
     12 HO3         -2.3670    -0.8860     1.1530 ho         1 TH7       0.424000
     13 H4           1.9220     0.0000     3.3470 ha         1 TH7       0.148000
     14 H5          -0.5430     0.0010     3.3410 ha         1 TH7       0.146000
     15 H51          2.0040    -0.8520    -1.5770 ho         1 TH7       0.425000
     16 H6           5.1140     1.5900     1.3370 ho         1 TH7       0.456000
@<TRIPOS>BOND
     1     1     4 ar
     2     1    10 ar
     3     1    11 1
     4     2     4 1
     5     3     5 1
     6     3     8 1
     7     4     5 ar
     8     5     7 ar
     9     6    10 1
    10     6    12 1
    11     7     9 ar
    12     7    13 1
    13     9    10 ar
    14     9    14 1
    15     2    15 1
    16     8    16 1
@<TRIPOS>SUBSTRUCTURE
     1 TH7         1 TEMP              0 ****  ****    0 ROOT
