@<TRIPOS>MOLECULE
molecule
   36    36     1     0     0
SMALL
bcc


@<TRIPOS>ATOM
      1 C1           0.0000     0.0000     0.0000 c3         1 TH8       0.073100
      2 Cl1          1.7900     0.0000     0.0000 cl         1 TH8      -0.134400
      3 Cl2         -0.6190     0.0000     1.6890 cl         1 TH8      -0.134400
      4 C2          -0.5820     1.2450    -0.7980 c          1 TH8       0.648100
      5 O2          -0.8260     2.3280    -0.2240 o          1 TH8      -0.576100
      6 N2          -0.7170     0.9870    -2.0430 ns         1 TH8      -0.498900
      7 C3          -1.2040     2.0590    -2.8780 c3         1 TH8       0.074700
      8 C4          -2.6520     1.8330    -3.3350 c3         1 TH8       0.134400
      9 O4          -3.6560     2.2460    -2.3790 oh         1 TH8      -0.600800
     10 C5          -0.1430     2.2590    -3.9960 c3         1 TH8       0.192400
     11 O5          -0.2270     1.0860    -4.7990 oh         1 TH8      -0.607800
     12 C6           1.2100     2.4630    -3.3300 ca         1 TH8      -0.070300
     13 C7           1.4560     3.5810    -2.5210 ca         1 TH8      -0.129000
     14 C8           2.7330     3.7400    -1.9120 ca         1 TH8      -0.031000
     15 C9           3.6900     2.7470    -2.1570 ca         1 TH8      -0.277500
     16 O9A          6.1330     2.2160    -2.2570 o          1 TH8      -0.615300
     17 O9B          5.3880     4.3680    -1.2520 o          1 TH8      -0.615300
     18 C10          3.4520     1.6550    -2.9430 ca         1 TH8      -0.031000
     19 C11          2.2020     1.5040    -3.5400 ca         1 TH8      -0.129000
     20 C12          5.0920     2.1380     0.2200 c3         1 TH8      -0.219300
     21 S12          5.2820     2.9560    -1.3900 sy         1 TH8       1.167300
     22 H1          -0.3400    -0.9060    -0.4870 h2         1 TH8       0.086700
     23 H2          -0.7940     0.0380    -2.3520 hn         1 TH8       0.335500
     24 H3          -1.2020     2.9590    -2.2750 h1         1 TH8       0.113700
     25 H41C        -2.8090     2.3810    -4.2560 h1         1 TH8       0.029200
     26 H42C        -2.7860     0.7770    -3.5370 h1         1 TH8       0.029200
     27 H5          -0.3950     3.1290    -4.5900 h1         1 TH8       0.054700
     28 H4          -4.5080     2.2020    -2.7800 ho         1 TH8       0.410000
     29 HA          -0.1570     1.3220    -5.7090 ho         1 TH8       0.411000
     30 H7           0.6810     4.3220    -2.3630 ha         1 TH8       0.145000
     31 H11          2.0000     0.6430    -4.1650 ha         1 TH8       0.145000
     32 H8           2.9550     4.5930    -1.2830 ha         1 TH8       0.159000
     33 H10          4.2270     0.9140    -3.1010 ha         1 TH8       0.159000
     34 H121         4.2200     2.5350     0.7250 h1         1 TH8       0.100700
     35 H122         4.9690     1.0720     0.0710 h1         1 TH8       0.100700
     36 H123         5.9730     2.3200     0.8240 h1         1 TH8       0.100700
@<TRIPOS>BOND
     1     1     2 1
     2     1     3 1
     3     1     4 1
     4     4     5 2
     5     4     6 1
     6     6     7 1
     7     7     8 1
     8     7    10 1
     9     8     9 1
    10    10    11 1
    11    10    12 1
    12    12    13 ar
    13    12    19 ar
    14    13    14 ar
    15    14    15 ar
    16    15    18 ar
    17    15    21 1
    18    16    21 2
    19    17    21 2
    20    18    19 ar
    21    20    21 1
    22     1    22 1
    23     6    23 1
    24     7    24 1
    25     8    25 1
    26     8    26 1
    27    10    27 1
    28     9    28 1
    29    11    29 1
    30    13    30 1
    31    19    31 1
    32    14    32 1
    33    18    33 1
    34    20    34 1
    35    20    35 1
    36    20    36 1
@<TRIPOS>SUBSTRUCTURE
     1 TH8         1 TEMP              0 ****  ****    0 ROOT
