@<TRIPOS>MOLECULE
TH9
   51    51     1     0     0
SMALL
bcc


@<TRIPOS>ATOM
      1 CAA          0.0000     0.0000     0.0000 c3         1 TH9       0.006900
      2 OAB         11.9790     7.0160    12.2300 o          1 TH9      -0.872800
      3 OAC         11.6960     2.1420    11.5510 o          1 TH9      -0.667100
      4 OAD         12.7890     6.3390    14.1810 o          1 TH9      -0.872800
      5 OAE         12.4280     3.6670    13.3130 oh         1 TH9      -0.476100
      6 CAF         11.5810     4.4510    11.2750 ce         1 TH9      -0.371200
      7 CAG          9.6490     0.0010     3.4950 ca         1 TH9      -0.058000
      8 CAH         10.1760     0.0000     4.7720 ca         1 TH9      -0.142000
      9 CAI          8.2790    -0.0000     3.3110 ca         1 TH9      -0.223000
     10 CAJ          7.9660    -0.0010     5.6920 ca         1 TH9      -0.139000
     11 CAK          1.5300     0.0000     0.0000 c3         1 TH9      -0.028400
     12 CAL          2.0400     0.0000     1.4420 c3         1 TH9      -0.028400
     13 CAM          3.5700    -0.0000     1.4420 c3         1 TH9      -0.024400
     14 CAN          4.0800    -0.0000     2.8860 c3         1 TH9      -0.036400
     15 CAO         10.1090     1.4410     7.7330 c3         1 TH9      -0.041400
     16 CAP         10.6970     1.4400     9.1460 c3         1 TH9       0.056000
     17 CAQ          5.6100    -0.0010     2.8850 c3         1 TH9       0.202400
     18 NAS         10.8840     2.8210     9.5980 ns         1 TH9      -0.235900
     19 OAT          6.0870    -0.0010     4.2320 os         1 TH9      -0.306900
     20 CAU         12.2810     6.0930    12.9580 c          1 TH9       0.937800
     21 CAV         11.3930     3.0670    10.8220 c          1 TH9       0.605300
     22 CAW         12.0900     4.6970    12.5010 cf         1 TH9       0.164900
     23 CAX          9.3350    -0.0000     5.8700 ca         1 TH9      -0.042300
     24 CAY          7.4340    -0.0010     4.4110 ca         1 TH9       0.152100
     25 H1          -0.3610    -0.0000    -1.0210 hc         1 TH9       0.000033
     26 H2          -0.3610     0.8850     0.5100 hc         1 TH9       0.000033
     27 H3          -0.3610    -0.8840     0.5110 hc         1 TH9       0.000033
     28 H5          13.3360     3.7430    13.5560 ho         1 TH9       0.407000
     29 H6          11.3110     5.2750    10.6260 ha         1 TH9       0.136000
     30 H7          10.3100     0.0010     2.6370 ha         1 TH9       0.096000
     31 H8          11.2500     0.0010     4.9140 ha         1 TH9       0.110000
     32 H9           7.8670    -0.0000     2.3090 ha         1 TH9       0.116000
     33 H10          7.3070    -0.0010     6.5520 ha         1 TH9       0.122000
     34 H11          1.8920     0.8850    -0.5110 hc         1 TH9       0.011200
     35 H12          1.8920    -0.8850    -0.5110 hc         1 TH9       0.011200
     36 H13          1.6790    -0.8850     1.9530 hc         1 TH9       0.016700
     37 H14          1.6790     0.8850     1.9530 hc         1 TH9       0.016700
     38 H15          3.9320     0.8850     0.9320 hc         1 TH9       0.013700
     39 H16          3.9320    -0.8840     0.9310 hc         1 TH9       0.013700
     40 H17          3.7190     0.8840     3.3960 hc         1 TH9       0.024700
     41 H18          3.7190    -0.8850     3.3960 hc         1 TH9       0.024700
     42 H19          9.1540     1.9530     7.7390 hc         1 TH9       0.018700
     43 H20         10.7880     1.9520     7.0610 hc         1 TH9       0.018700
     44 H21         10.0180     0.9290     9.8190 h1         1 TH9       0.017700
     45 H22         11.6520     0.9290     9.1400 h1         1 TH9       0.017700
     46 H23          5.9700    -0.8850     2.3740 h1         1 TH9       0.000700
     47 H24          5.9710     0.8840     2.3740 h1         1 TH9       0.000700
     48 H25         10.8680    -0.5120     7.2550 hc         1 TH9       0.021200
     49 H26          9.2350    -0.5120     7.9340 hc         1 TH9       0.021200
     50 H27         10.6350     3.5820     8.9980 hn         1 TH9       0.172500
     51 CAR          9.9130    -0.0010     7.2620 c3         1 TH9       0.030900
@<TRIPOS>BOND
     1     1    11 1   
     2     1    25 1   
     3     1    26 1   
     4     1    27 1   
     5     2    20 1   
     6     3    21 2   
     7     4    20 1   
     8     5    22 1   
     9     5    28 1   
    10     6    21 1   
    11     6    22 2   
    12     6    29 1   
    13     7     8 ar  
    14     7     9 ar  
    15     7    30 1   
    16     8    23 ar  
    17     8    31 1   
    18     9    24 ar  
    19     9    32 1   
    20    10    23 ar  
    21    10    24 ar  
    22    10    33 1   
    23    11    12 1   
    24    11    34 1   
    25    11    35 1   
    26    12    13 1   
    27    12    36 1   
    28    12    37 1   
    29    13    14 1   
    30    13    38 1   
    31    13    39 1   
    32    14    17 1   
    33    14    40 1   
    34    14    41 1   
    35    15    16 1   
    36    15    42 1   
    37    15    43 1   
    38    15    51 1   
    39    16    18 1   
    40    16    44 1   
    41    16    45 1   
    42    17    19 1   
    43    17    46 1   
    44    17    47 1   
    45    18    21 1   
    46    18    50 1   
    47    19    24 1   
    48    20    22 1   
    49    23    51 1   
    50    48    51 1   
    51    49    51 1   
@<TRIPOS>SUBSTRUCTURE
     1 TH9         1 TEMP              0 ****  ****    0 ROOT
