@<TRIPOS>MOLECULE
molecule
   51    51     1     0     0
SMALL
bcc


@<TRIPOS>ATOM
      1 CAA          0.0000     0.0000     0.0000 c3         1 TH9      -0.092100
      2 OAB         11.9790     7.0160    12.2300 o          1 TH9      -0.790300
      3 OAC         11.6960     2.1420    11.5510 o          1 TH9      -0.682100
      4 OAD         12.7890     6.3390    14.1810 o          1 TH9      -0.790300
      5 OAE         12.4280     3.6670    13.3130 oh         1 TH9      -0.506100
      6 CAF         11.5810     4.4510    11.2750 ce         1 TH9      -0.506200
      7 CAG          9.6490     0.0010     3.4950 ca         1 TH9      -0.091000
      8 CAH         10.1760     0.0000     4.7720 ca         1 TH9      -0.164000
      9 CAI          8.2790    -0.0000     3.3110 ca         1 TH9      -0.231000
     10 CAJ          7.9660    -0.0010     5.6920 ca         1 TH9      -0.155000
     11 CAK          1.5300     0.0000     0.0000 c3         1 TH9      -0.084400
     12 CAL          2.0400     0.0000     1.4420 c3         1 TH9      -0.079400
     13 CAM          3.5700    -0.0000     1.4420 c3         1 TH9      -0.081400
     14 CAN          4.0800    -0.0000     2.8860 c3         1 TH9      -0.082400
     15 CAO         10.1090     1.4410     7.7330 c3         1 TH9      -0.096400
     16 CAP         10.6970     1.4400     9.1460 c3         1 TH9       0.115000
     17 CAQ          5.6100    -0.0010     2.8850 c3         1 TH9       0.139400
     18 NAS         10.8840     2.8210     9.5980 ns         1 TH9      -0.596900
     19 OAT          6.0870    -0.0010     4.2320 os         1 TH9      -0.332900
     20 CAU         12.2810     6.0930    12.9580 c          1 TH9       0.836800
     21 CAV         11.3930     3.0670    10.8220 c          1 TH9       0.628300
     22 CAW         12.0900     4.6970    12.5010 cf         1 TH9       0.258900
     23 CAX          9.3350    -0.0000     5.8700 ca         1 TH9      -0.039300
     24 CAY          7.4340    -0.0010     4.4110 ca         1 TH9       0.143100
     25 H1          -0.3610     0.0060    -1.0210 hc         1 TH9       0.032367
     26 H2          -0.3610     0.8810     0.5160 hc         1 TH9       0.032367
     27 H3          -0.3610    -0.8880     0.5050 hc         1 TH9       0.032367
     28 H5          12.0360     3.7940    14.1610 ho         1 TH9       0.434000
     29 H6          12.3770     3.8130    10.9100 ha         1 TH9       0.213000
     30 H7          10.3100     0.0010     2.6370 ha         1 TH9       0.125000
     31 H8          11.2500     0.0010     4.9140 ha         1 TH9       0.133000
     32 H9           7.8670    -0.0000     2.3090 ha         1 TH9       0.128000
     33 H10          7.3070    -0.0010     6.5520 ha         1 TH9       0.146000
     34 H11          1.8920     0.8850    -0.5110 hc         1 TH9       0.039700
     35 H12          1.8920    -0.8850    -0.5110 hc         1 TH9       0.039700
     36 H13          1.6790    -0.8850     1.9530 hc         1 TH9       0.043700
     37 H14          1.6790     0.8850     1.9530 hc         1 TH9       0.043700
     38 H15          3.9320     0.8850     0.9320 hc         1 TH9       0.041700
     39 H16          3.9320    -0.8840     0.9310 hc         1 TH9       0.041700
     40 H17          3.7190    -0.8850     3.3960 hc         1 TH9       0.056200
     41 H18          3.7190     0.8840     3.3960 hc         1 TH9       0.056200
     42 H19          9.1540     1.9530     7.7390 hc         1 TH9       0.049700
     43 H20         10.7880     1.9520     7.0610 hc         1 TH9       0.049700
     44 H21         10.0180     0.9290     9.8190 h1         1 TH9       0.041700
     45 H22         11.6520     0.9300     9.1400 h1         1 TH9       0.041700
     46 H23          5.9710     0.8840     2.3740 h1         1 TH9       0.033200
     47 H24          5.9700    -0.8850     2.3740 h1         1 TH9       0.033200
     48 H25          9.2340    -0.5120     7.9340 hc         1 TH9       0.051700
     49 H26         10.8680    -0.5120     7.2550 hc         1 TH9       0.051700
     50 H27         10.6180     3.5820     9.0050 hn         1 TH9       0.324500
     51 CAR          9.9130    -0.0010     7.2620 c3         1 TH9      -0.035100
@<TRIPOS>BOND
     1     1    11 1
     2     2    20 1
     3     6    21 1
     4     6    22 2
     5     7     8 ar
     6     7     9 ar
     7     8    23 ar
     8     9    24 ar
     9    12    11 1
    10    12    13 1
    11    13    14 1
    12    16    15 1
    13    17    14 1
    14    51    15 1
    15    18    16 1
    16    18    21 1
    17    19    17 1
    18    20     4 1
    19    20    22 1
    20    21     3 2
    21    22     5 1
    22    23    10 ar
    23    23    51 1
    24    24    10 ar
    25    24    19 1
    26     1    25 1
    27     1    26 1
    28     1    27 1
    29     5    28 1
    30     6    29 1
    31     7    30 1
    32     8    31 1
    33     9    32 1
    34    10    33 1
    35    11    34 1
    36    11    35 1
    37    12    36 1
    38    12    37 1
    39    13    38 1
    40    13    39 1
    41    14    40 1
    42    14    41 1
    43    15    42 1
    44    15    43 1
    45    16    44 1
    46    16    45 1
    47    17    46 1
    48    17    47 1
    49    51    48 1
    50    51    49 1
    51    18    50 1
@<TRIPOS>SUBSTRUCTURE
     1 TH9         1 TEMP              0 ****  ****    0 ROOT
