@<TRIPOS>MOLECULE
molecule
   29    31     1     0     0
SMALL
bcc


@<TRIPOS>ATOM
      1 C1           0.0000     0.0000     0.0000 ca         1 THA      -0.120000
      2 C2           1.3610     0.0000     0.0000 ca         1 THA      -0.169300
      3 C3           2.0590     0.0000     1.2200 ca         1 THA       0.430600
      4 C4           1.3250    -0.0060     2.4300 ca         1 THA      -0.175300
      5 C5          -0.0750     0.0010     2.3940 ca         1 THA      -0.101000
      6 C6          -0.7180    -0.0000     1.1920 ca         1 THA      -0.136000
      7 N7           3.3920     0.0000     1.2550 nb         1 THA      -0.701000
      8 C8           4.0750    -0.0020     2.3870 ca         1 THA       0.457600
      9 C9           3.4270     0.0020     3.6080 ca         1 THA      -0.214600
     10 C10          2.0360     0.0030     3.6510 ca         1 THA       0.206600
     11 C11          5.5800    -0.0090     2.2790 c3         1 THA      -0.125700
     12 C12          6.2160     0.4270     3.5960 c3         1 THA      -0.083400
     13 C13          5.6160    -0.4150     4.7260 c3         1 THA      -0.084400
     14 C14          4.1630     0.0090     4.9230 c3         1 THA      -0.021100
     15 N15          1.3630     0.0060     4.8630 nv         1 THA      -0.985200
     16 H1          -0.5330    -0.0010    -0.9430 ha         1 THA       0.130000
     17 H2           1.9040     0.0000    -0.9370 ha         1 THA       0.147000
     18 H5          -0.6430     0.0010     3.3160 ha         1 THA       0.135000
     19 H6          -1.8010    -0.0000     1.1650 ha         1 THA       0.128000
     20 H111         5.8830     0.6730     1.4940 hc         1 THA       0.063200
     21 H112         5.9140    -1.0110     2.0360 hc         1 THA       0.063200
     22 H121         7.2870     0.2670     3.5520 hc         1 THA       0.046700
     23 H122         6.0050     1.4750     3.7720 hc         1 THA       0.046700
     24 H131         5.6560    -1.4640     4.4590 hc         1 THA       0.045200
     25 H132         6.1710    -0.2450     5.6410 hc         1 THA       0.045200
     26 H141         3.6800    -0.6800     5.6050 hc         1 THA       0.051700
     27 H142         4.1370     1.0090     5.3390 hc         1 THA       0.051700
     28 HN51         1.1270     0.8730     5.3030 hn         1 THA       0.432800
     29 HN52         1.0870    -0.8590     5.2850 hn         1 THA       0.432800
@<TRIPOS>BOND
     1     1     2 ar
     2     1     6 ar
     3     1    16 1
     4     2     3 ar
     5     2    17 1
     6     3     4 ar
     7     3     7 ar
     8     4     5 ar
     9     4    10 ar
    10     5     6 ar
    11     5    18 1
    12     6    19 1
    13     7     8 ar
    14     8     9 ar
    15     8    11 1
    16     9    10 ar
    17     9    14 1
    18    10    15 1
    19    11    12 1
    20    11    20 1
    21    11    21 1
    22    12    13 1
    23    12    22 1
    24    12    23 1
    25    13    14 1
    26    13    24 1
    27    13    25 1
    28    14    26 1
    29    14    27 1
    30    15    28 1
    31    15    29 1
@<TRIPOS>SUBSTRUCTURE
     1 THA         1 TEMP              0 ****  ****    0 ROOT
