@<TRIPOS>MOLECULE
THB
   32    33     1     0     0
SMALL
bcc


@<TRIPOS>ATOM
      1 N1          0.0850   -0.2560   -0.0390 nc        1 THB     -0.709300
      2 N2          2.1610   -0.4290   -1.1870 nh        1 THB     -0.889800
      3 C2          1.4290   -0.2960    0.0180 cd        1 THB      0.682800
      4 N3          2.1540   -0.2720    1.2190 n         1 THB     -0.498400
      5 C4          1.4910   -0.1970    2.4660 c         1 THB      0.728700
      6 O4          2.2020   -0.2050    3.4870 o         1 THB     -0.634500
      7 C4A         0.0310   -0.1300    2.4170 cd        1 THB     -0.201200
      8 C8A        -0.6180   -0.2520    1.1720 cc        1 THB      0.389600
      9 N8         -2.0040   -0.3870    1.1100 nh        1 THB     -0.733000
     10 C7         -2.7600   -0.3020    2.3300 c3        1 THB      0.174800
     11 C6         -2.0500    0.4640    3.4810 c3        1 THB      0.161500
     12 N5         -0.6490    0.1140    3.6360 nh        1 THB     -0.666000
     13 C9         -2.2310    1.9930    3.2700 c3        1 THB      0.109100
     14 O9         -3.6390    2.1870    3.2300 oh        1 THB     -0.610800
     15 C10        -1.5710    2.8080    4.4030 c3        1 THB      0.131100
     16 O10        -0.2640    3.1980    4.0070 oh        1 THB     -0.607800
     17 C11        -2.3170    4.0950    4.7100 c3        1 THB     -0.102100
     18 HN21        3.0130    0.0860   -1.2210 hn        1 THB      0.417300
     19 HN22        1.6090   -0.3490   -2.0140 hn        1 THB      0.417300
     20 H3          3.1460   -0.3560    1.2230 hn        1 THB      0.336500
     21 H8         -2.4590   -0.0960    0.2740 hn        1 THB      0.434800
     22 H71        -3.7550    0.1860    2.1280 h1        1 THB      0.064700
     23 H72        -2.9510   -1.3570    2.6840 h1        1 THB      0.064700
     24 H6         -2.5940    0.2000    4.4360 h1        1 THB      0.077700
     25 H5         -0.5280   -0.6590    4.2650 hn        1 THB      0.386800
     26 H9         -1.7760    2.3040    2.2880 h1        1 THB      0.053700
     27 HO9        -3.7860    3.1100    2.9920 ho        1 THB      0.411000
     28 H10        -1.5180    2.1780    5.3350 h1        1 THB      0.044700
     29 HO1         0.2830    2.4030    3.9910 ho        1 THB      0.427000
     30 H111       -1.7500    4.6790    5.4730 hc        1 THB      0.046367
     31 H112       -2.4130    4.7220    3.7920 hc        1 THB      0.046367
     32 H113       -3.3320    3.8580    5.1080 hc        1 THB      0.046367
@<TRIPOS>BOND
     1    1    3 2   
     2    1    8 1   
     3    2    3 1   
     4    2   18 1   
     5    2   19 1   
     6    3    4 1   
     7    4    5 1   
     8    4   20 1   
     9    5    6 2   
    10    5    7 1   
    11    7    8 2   
    12    7   12 1   
    13    8    9 1   
    14    9   10 1   
    15    9   21 1   
    16   10   11 1   
    17   10   22 1   
    18   10   23 1   
    19   11   12 1   
    20   11   13 1   
    21   11   24 1   
    22   12   25 1   
    23   13   14 1   
    24   13   15 1   
    25   13   26 1   
    26   14   27 1   
    27   15   16 1   
    28   15   17 1   
    29   15   28 1   
    30   16   29 1   
    31   17   30 1   
    32   17   31 1   
    33   17   32 1   
@<TRIPOS>SUBSTRUCTURE
     1 THB         1 TEMP              0 ****  ****    0 ROOT
