@<TRIPOS>MOLECULE
molecule
   49    50     1     0     0
SMALL
bcc


@<TRIPOS>ATOM
      1 N1'          0.0000     0.0000     0.0000 nb         1 THD      -0.776000
      2 C2'          1.3180     0.0000     0.0000 ca         1 THD       0.617300
      3 CM2          2.0500    -0.0070    -1.3170 c3         1 THD      -0.098400
      4 N3'          2.0120     0.0000     1.1190 nb         1 THD      -0.833000
      5 C4'          1.3970     0.0120     2.2990 ca         1 THD       0.719200
      6 N4'          2.1310     0.0160     3.4740 nv         1 THD      -1.021500
      7 C5'          0.0020     0.0110     2.3340 ca         1 THD      -0.456900
      8 C6'         -0.6830     0.0060     1.1350 ca         1 THD       0.474200
      9 C7'         -0.7380     0.0170     3.6470 c3         1 THD       0.303100
     10 N3          -2.1800     0.0150     3.3940 na         1 THD      -0.546200
     11 C2          -2.8780     1.2100     3.1720 cc         1 THD       0.245600
     12 S1          -4.5400     0.6030     2.9290 ss         1 THD      -0.246200
     13 C5          -4.2030    -1.1370     3.1450 cc         1 THD      -0.017600
     14 C4          -2.8940    -1.1520     3.3750 cd         1 THD       0.050800
     15 CM4         -2.1930    -2.4630     3.6150 c3         1 THD      -0.039900
     16 C6          -5.1630    -2.2960     3.0810 c3         1 THD      -0.001200
     17 C7          -5.7360    -2.5600     4.4750 c3         1 THD       0.164400
     18 O7          -6.6460    -3.6600     4.4160 os         1 THD      -0.555200
     19 PA          -7.2070    -3.8810     5.9080 p5         1 THD       1.249800
     20 O1A         -7.9560    -2.5470     6.4030 o          1 THD      -0.800000
     21 O2A         -6.0800    -4.1810     6.8190 o          1 THD      -0.800000
     22 O3A         -8.2430    -5.1130     5.9150 os         1 THD      -0.649800
     23 PB          -8.7630    -5.2770     7.4300 p5         1 THD       1.192900
     24 O1B         -9.4270    -4.0280     7.8610 o          1 THD      -0.830833
     25 O2B         -9.8080    -6.4980     7.5110 o          1 THD      -0.830833
     26 O3B         -7.5110    -5.5790     8.3950 o          1 THD      -0.830833
     27 C8          -2.4220     2.4650     3.1400 c2         1 THD      -0.081100
     28 O9          -1.0820     2.7060     3.2390 oh         1 THD      -0.496100
     29 C9          -3.3860     3.6140     2.9960 c3         1 THD       0.186600
     30 O10         -3.2740     4.4750     4.1300 oh         1 THD      -0.614800
     31 HM21         1.3500     0.1820    -2.1210 hc         1 THD       0.032033
     32 HM22         2.8100     0.7650    -1.3110 hc         1 THD       0.032033
     33 HM23         2.5180    -0.9730    -1.4650 hc         1 THD       0.032033
     34 H4'1         1.6610     0.0110     4.3570 hn         1 THD       0.427800
     35 H4'2         3.1310     0.0010     3.4390 hn         1 THD       0.427800
     36 H6'         -1.7660     0.0050     1.1230 h4         1 THD       0.036100
     37 H7'1        -0.4700    -0.8640     4.2160 h1         1 THD       0.056700
     38 H7'2        -0.4710     0.9050     4.2080 h1         1 THD       0.056700
     39 HM41        -1.9090    -2.5350     4.6580 hc         1 THD       0.054033
     40 HM42        -1.3060    -2.5170     2.9950 hc         1 THD       0.054033
     41 HM43        -2.8580    -3.2800     3.3650 hc         1 THD       0.054033
     42 H6C1        -4.6410    -3.1790     2.7320 hc         1 THD       0.048700
     43 H6C2        -5.9700    -2.0600     2.3980 hc         1 THD       0.048700
     44 H7C1        -6.2580    -1.6780     4.8240 h1         1 THD       0.055700
     45 H7C2        -4.9290    -2.7960     5.1580 h1         1 THD       0.055700
     46 H9          -0.9310     3.6370     3.2720 ho         1 THD       0.401000
     47 H9C1        -4.3970     3.2300     2.9320 h1         1 THD       0.028700
     48 H9C2        -3.1530     4.1700     2.0960 h1         1 THD       0.028700
     49 H10         -3.8790     5.1930     4.0400 ho         1 THD       0.389000
@<TRIPOS>BOND
     1     1     2 ar
     2     1     8 ar
     3     2     3 1
     4     2     4 ar
     5     3    31 1
     6     3    32 1
     7     3    33 1
     8     4     5 ar
     9     5     6 1
    10     5     7 ar
    11     6    34 1
    12     6    35 1
    13     7     8 ar
    14     7     9 1
    15     8    36 1
    16     9    10 1
    17     9    37 1
    18     9    38 1
    19    10    11 1
    20    10    14 1
    21    11    12 1
    22    11    27 2
    23    12    13 1
    24    13    14 2
    25    13    16 1
    26    14    15 1
    27    15    39 1
    28    15    40 1
    29    15    41 1
    30    16    17 1
    31    16    42 1
    32    16    43 1
    33    17    18 1
    34    17    44 1
    35    17    45 1
    36    18    19 1
    37    19    20 1
    38    19    21 1
    39    19    22 1
    40    22    23 1
    41    23    24 1
    42    23    25 1
    43    23    26 1
    44    27    28 1
    45    27    29 1
    46    28    46 1
    47    29    30 1
    48    29    47 1
    49    29    48 1
    50    30    49 1
@<TRIPOS>SUBSTRUCTURE
     1 THD         1 TEMP              0 ****  ****    0 ROOT
