@<TRIPOS>MOLECULE
molecule
   16    15     1     0     0
SMALL
bcc


@<TRIPOS>ATOM
      1 C1           0.0000     0.0000     0.0000 c3         1 THE       0.106400
      2 C2           1.5300     0.0000     0.0000 c3         1 THE       0.179100
      3 C3           2.0390     0.0000     1.4430 c3         1 THE       0.043100
      4 C4           3.5410     0.1230     1.4450 c          1 THE       0.877600
      5 O1          -0.4770    -0.1170    -1.3420 oh         1 THE      -0.623800
      6 O2           2.0060     1.1660    -0.6730 oh         1 THE      -0.571800
      7 O3           1.4700     1.1040     2.1500 oh         1 THE      -0.597800
      8 O4           4.0950     1.1590     1.9410 o          1 THE      -0.840300
      9 O5           4.2580    -0.8080     0.9500 o          1 THE      -0.840300
     10 H11         -0.3610     0.9250     0.4320 h1         1 THE       0.025200
     11 H12         -0.3610    -0.8370     0.5860 h1         1 THE       0.025200
     12 H2           1.8910    -0.8850    -0.5100 h1         1 THE       0.052700
     13 H3           1.7520    -0.9260     1.9270 h1         1 THE       0.012700
     14 HO1         -1.4140    -0.2240    -1.3350 ho         1 THE       0.381000
     15 HO2          2.2800     0.9360    -1.5460 ho         1 THE       0.388000
     16 HO3          1.4440     0.9070     3.0710 ho         1 THE       0.381000
@<TRIPOS>BOND
     1     1     2 1
     2     1     5 1
     3     1    10 1
     4     1    11 1
     5     2     3 1
     6     2     6 1
     7     2    12 1
     8     3     4 1
     9     3     7 1
    10     3    13 1
    11     4     8 1
    12     4     9 1
    13     5    14 1
    14     6    15 1
    15     7    16 1
@<TRIPOS>SUBSTRUCTURE
     1 THE         1 TEMP              0 ****  ****    0 ROOT
