@<TRIPOS>MOLECULE
THE
   16    15     1     0     0
SMALL
bcc


@<TRIPOS>ATOM
      1 C1         -0.1540   -0.2720    0.0620 c3        1 THE      0.130400
      2 C2          1.3610   -0.0600    0.0160 c3        1 THE      0.096100
      3 C3          1.9740   -0.1780    1.4180 c3        1 THE     -0.019900
      4 C4          3.5160   -0.0320    1.3050 c         1 THE      0.892600
      5 O1         -0.7610   -0.0880   -1.2050 oh        1 THE     -0.630800
      6 O2          1.5670    1.2270   -0.5560 oh        1 THE     -0.655800
      7 O3          1.4400    0.8270    2.2640 oh        1 THE     -0.627800
      8 O4          3.9360    1.1600    1.1910 o         1 THE     -0.830300
      9 O5          4.2310   -1.0640    1.3170 o         1 THE     -0.830300
     10 H11        -0.3870   -1.3300    0.3510 h1        1 THE      0.041700
     11 H12        -0.6090    0.4380    0.8030 h1        1 THE      0.041700
     12 H2          1.8380   -0.8230   -0.6610 h1        1 THE      0.045700
     13 H3          1.6890   -1.1560    1.8830 h1        1 THE      0.061700
     14 HO1        -0.3750    0.7120   -1.5840 ho        1 THE      0.414000
     15 HO2         2.4140    1.5610   -0.2130 ho        1 THE      0.451000
     16 HO3         2.0030    1.6080    2.1450 ho        1 THE      0.418000
@<TRIPOS>BOND
     1    1    2 1   
     2    1    5 1   
     3    1   10 1   
     4    1   11 1   
     5    2    3 1   
     6    2    6 1   
     7    2   12 1   
     8    3    4 1   
     9    3    7 1   
    10    3   13 1   
    11    4    8 1   
    12    4    9 1   
    13    5   14 1   
    14    6   15 1   
    15    7   16 1   
@<TRIPOS>SUBSTRUCTURE
     1 THE         1 TEMP              0 ****  ****    0 ROOT
