@<TRIPOS>MOLECULE
THF
   56    56     1     0     0
SMALL
bcc


@<TRIPOS>ATOM
      1 N1          0.9180    4.0040    2.4840 na        1 THF     -0.704000
      2 C2          2.0370    3.5230    3.2060 cc        1 THF      0.870100
      3 NA2         2.9760    4.4890    3.6220 nh        1 THF     -0.886800
      4 N3          2.2860    2.2190    3.4050 nd        1 THF     -0.756100
      5 C4          1.3630    1.2660    2.9730 c         1 THF      0.750700
      6 O4          1.6010    0.0490    3.1410 o         1 THF     -0.630100
      7 C4A         0.0850    1.7290    2.3540 cc        1 THF     -0.134200
      8 N5         -0.9570    0.7820    2.0990 nh        1 THF     -0.312200
      9 C6         -1.4630    0.0890    3.2840 c3        1 THF      0.197800
     10 C7         -2.2490    4.0460    1.1110 c1        1 THF      0.519800
     11 N8         -1.2540    3.6100    1.5850 n1        1 THF     -1.134500
     12 C8A        -0.0960    3.0950    2.1490 cd        1 THF      0.812700
     13 C9         -1.8050    1.0040    4.4810 c3        1 THF      0.176800
     14 N10        -0.6090    1.4860    5.1430 n3        1 THF     -0.642800
     15 C11        -1.0960    6.2040    5.7890 ce        1 THF     -0.351200
     16 C12        -0.4080    5.1730    6.6200 c3        1 THF      0.110900
     17 C13        -0.5710    3.8300    6.1400 c1        1 THF     -0.148100
     18 C14        -0.6510    2.7090    5.7130 c1        1 THF     -0.079200
     19 C15        -3.2510    5.9830    6.9560 c2        1 THF     -0.278000
     20 C16        -2.3700    6.7010    6.2510 ce        1 THF     -0.078000
     21 O           0.6920    6.3330    4.1890 o         1 THF     -0.811300
     22 N          -1.1790    7.6180    3.7390 n4        1 THF     -0.635800
     23 CA         -0.4520    8.9030    3.5330 c3        1 THF     -0.035500
     24 CB          0.1240    9.0450    2.1290 c3        1 THF     -0.086400
     25 CG          1.0480    7.9210    1.7890 cx        1 THF      0.036100
     26 CD          1.2950    7.5170    0.4150 c         1 THF      0.704600
     27 OE1         0.4010    6.7470    1.1220 os        1 THF     -0.480900
     28 OE2         1.7040    7.4430   -0.7180 o         1 THF     -0.511500
     29 CT         -1.3990   10.1550    3.7950 c         1 THF      0.927600
     30 O1         -2.5730    9.9000    4.1660 o         1 THF     -0.788300
     31 O2         -0.8690   11.2700    3.6040 o         1 THF     -0.788300
     32 CP1        -1.4220    0.4630    0.9220 c1        1 THF     -0.119500
     33 O3          1.3100   -0.8130    5.6030 oh        1 THF     -0.828000
     34 HN1         0.7180    4.9930    2.4870 hn        1 THF      0.496800
     35 HN21        2.5830    5.3650    3.9080 hn        1 THF      0.434300
     36 HN22        3.6690    4.1330    4.2460 hn        1 THF      0.434300
     37 H6         -2.4010   -0.4540    2.9810 h1        1 THF      0.077200
     38 H7         -0.6820   -0.6650    3.5950 h1        1 THF      0.077200
     39 H91        -2.4420    0.3860    5.1810 h1        1 THF      0.047700
     40 H92        -2.4260    1.8750    4.1360 h1        1 THF      0.047700
     41 HN0        -0.1640    0.7890    5.7190 hn        1 THF      0.427800
     42 H12        -0.7920    5.2380    7.6780 hc        1 THF      0.047200
     43 H13         0.6990    5.3990    6.6470 hc        1 THF      0.047200
     44 H15        -3.0890    4.9290    7.2130 ha        1 THF      0.101500
     45 H16        -4.1910    6.4150    7.3170 ha        1 THF      0.101500
     46 HN         -2.1080    7.8620    4.1260 hn        1 THF      0.442300
     47 HA         -1.3110    7.1570    2.8390 hn        1 THF      0.442300
     48 HB1         0.3790    8.9510    4.2910 hx        1 THF      0.097700
     49 HB2        -0.7060    9.1170    1.3760 hc        1 THF      0.093700
     50 HG1         0.6850   10.0210    2.1070 hc        1 THF      0.093700
     51 HG2         1.7420    7.6110    2.6020 h1        1 THF      0.142700
     52 HCP1        1.9380   -0.1410    5.3130 ho        1 THF      0.414000
     53 HCP2       -0.9710    0.9780    0.0490 ha        1 THF     -0.011500
     54 HO3         1.1110   -1.2890    4.7900 ho        1 THF      0.414000
     55 H2         -2.6010    7.7640    6.0380 ha        1 THF      0.124000
     56 C          -0.4480    6.6440    4.6530 c2        1 THF      0.517300
@<TRIPOS>BOND
     1    1    2 1
     2    1   12 1
     3    1   34 1
     4    2    3 1
     5    2    4 2
     6    3   35 1
     7    3   36 1
     8    4    5 1
     9    5    6 2
    10    5    7 1
    11    7    8 1
    12    7   12 2
    13    8    9 1
    14    8   32 3
    15    9   13 1
    16    9   37 1
    17    9   38 1
    18   10   11 3
    19   11   12 1
    20   13   14 1
    21   13   39 1
    22   13   40 1
    23   14   18 1
    24   14   41 1
    25   15   16 1
    26   15   20 1
    27   15   56 2
    28   16   17 1
    29   16   42 1
    30   16   43 1
    31   17   18 3
    32   19   20 2
    33   19   44 1
    34   19   45 1
    35   20   55 1
    36   21   56 1
    37   22   23 1
    38   22   46 1
    39   22   47 1
    40   22   56 1
    41   23   24 1
    42   23   29 1
    43   23   48 1
    44   24   25 1
    45   24   49 1
    46   24   50 1
    47   25   26 1
    48   25   27 1
    49   25   51 1
    50   26   27 1
    51   26   28 2
    52   29   30 1
    53   29   31 1
    54   32   53 1
    55   33   52 1
    56   33   54 1
@<TRIPOS>SUBSTRUCTURE
     1 THF         1 TEMP              0 ****  ****    0 ROOT
