@<TRIPOS>MOLECULE
THG
   54    56     1     0     0
SMALL
bcc


@<TRIPOS>ATOM
      1 N3          0.1220   -0.1280    0.0050 n         1 THG     -0.495400
      2 C2          1.5150   -0.2660    0.1200 cc        1 THG      0.671800
      3 N1          2.1760   -0.1610    1.2860 nd        1 THG     -0.697300
      4 C8A         1.4290    0.1090    2.4370 cd        1 THG      0.362600
      5 C4A         0.0220    0.1240    2.4300 cc        1 THG     -0.171200
      6 C4         -0.6810    0.0940    1.1450 c         1 THG      0.728700
      7 N8          2.1380    0.3860    3.6160 nh        1 THG     -0.717000
      8 C7          1.3820    0.5230    4.8340 c3        1 THG      0.163800
      9 C6         -0.0100   -0.1700    4.8190 c3        1 THG      0.148500
     10 N5         -0.7650    0.0860    3.6050 nh        1 THG     -0.661000
     11 C9          0.2190   -1.6850    5.0620 c3        1 THG      0.189800
     12 N10        -1.0000   -2.4510    5.1750 nh        1 THG     -0.716600
     13 C4'        -0.8900   -3.8460    5.0030 ca        1 THG      0.144600
     14 C3'        -2.0220   -4.5960    4.6020 ca        1 THG     -0.199500
     15 C2'        -1.9490   -5.9780    4.5000 ca        1 THG     -0.057000
     16 C1'        -0.7580   -6.6620    4.7860 ca        1 THG     -0.166600
     17 C6'         0.3620   -5.9290    5.1840 ca        1 THG     -0.057000
     18 C5'         0.3040   -4.5430    5.2910 ca        1 THG     -0.199500
     19 C11        -0.7550   -8.1480    4.6190 c         1 THG      0.648700
     20 N           0.2670   -8.8710    5.1940 n         1 THG     -0.521900
     21 CA          0.1860  -10.3100    5.3670 c3        1 THG     -0.068300
     22 C           0.6970  -10.7540    6.7960 c         1 THG      0.914600
     23 OX2         1.2390   -9.8860    7.5330 o         1 THG     -0.821800
     24 OX1         0.5170  -11.9630    7.0900 o         1 THG     -0.821800
     25 CB          1.0030  -11.0940    4.3350 c3        1 THG     -0.077400
     26 CG          0.4170  -11.0410    2.9370 c3        1 THG     -0.188400
     27 CD          1.3700  -10.4980    1.9190 c         1 THG      0.637100
     28 OE1         1.6560  -10.9900    0.8230 o         1 THG     -0.544000
     29 OE2         2.0120   -9.3130    2.1540 oh        1 THG     -0.605100
     30 O11        -1.6300   -8.6900    3.9000 o         1 THG     -0.652100
     31 O4         -1.8990    0.2690    0.9600 o         1 THG     -0.633500
     32 N2          2.2530   -0.4590   -1.0780 nh        1 THG     -0.882800
     33 HN3        -0.3250   -0.1620   -0.8840 hn        1 THG      0.336500
     34 HN8         3.0260   -0.0600    3.7040 hn        1 THG      0.424800
     35 HC71        1.2170    1.6270    5.0000 h1        1 THG      0.055200
     36 HC72        1.9830    0.1290    5.6990 h1        1 THG      0.055200
     37 HC6        -0.6020    0.2380    5.6900 h1        1 THG      0.074700
     38 HN5        -1.3400    0.9050    3.6780 hn        1 THG      0.386800
     39 HC91        0.8910   -2.0850    4.2480 h1        1 THG      0.041200
     40 HC92        0.7700   -1.7850    6.0420 h1        1 THG      0.041200
     41 H10        -1.7620   -2.0640    4.6540 hn        1 THG      0.405800
     42 HC3        -2.9680   -4.0880    4.3670 ha        1 THG      0.128000
     43 HC2        -2.8290   -6.5590    4.1780 ha        1 THG      0.150000
     44 HC61        1.3160   -6.4290    5.4140 ha        1 THG      0.150000
     45 HC5         1.2040   -4.0000    5.6140 ha        1 THG      0.128000
     46 HN          1.7520   -8.9720    3.0220 ho        1 THG      0.444000
     47 HCA        -0.8920  -10.6350    5.2840 h1        1 THG      0.065700
     48 HCB1        2.0660  -10.7370    4.3360 hc        1 THG      0.063700
     49 HCB2        1.0150  -12.1600    4.6950 hc        1 THG      0.063700
     50 HCG1        0.1090  -12.0690    2.6090 hc        1 THG      0.088700
     51 HCG2       -0.5050  -10.3930    2.9220 hc        1 THG      0.088700
     52 HN21        3.2250   -0.6330   -0.9250 hn        1 THG      0.412300
     53 HN22        1.8380   -1.1090   -1.7110 hn        1 THG      0.412300
     54 HN31        0.7760   -8.4320    5.9420 hn        1 THG      0.327500
@<TRIPOS>BOND
     1    1    2 1   
     2    1    6 1   
     3    1   33 1   
     4    2    3 2   
     5    2   32 1   
     6    3    4 1   
     7    4    5 2   
     8    4    7 1   
     9    5    6 1   
    10    5   10 1   
    11    6   31 2   
    12    7    8 1   
    13    7   34 1   
    14    8    9 1   
    15    8   35 1   
    16    8   36 1   
    17    9   10 1   
    18    9   11 1   
    19    9   37 1   
    20   10   38 1   
    21   11   12 1   
    22   11   39 1   
    23   11   40 1   
    24   12   13 1   
    25   12   41 1   
    26   13   14 ar  
    27   13   18 ar  
    28   14   15 ar  
    29   14   42 1   
    30   15   16 ar  
    31   15   43 1   
    32   16   17 ar  
    33   16   19 1   
    34   17   18 ar  
    35   17   44 1   
    36   18   45 1   
    37   19   20 1   
    38   19   30 2   
    39   20   21 1   
    40   20   54 1   
    41   21   22 1   
    42   21   25 1   
    43   21   47 1   
    44   22   23 1   
    45   22   24 1   
    46   25   26 1   
    47   25   48 1   
    48   25   49 1   
    49   26   27 1   
    50   26   50 1   
    51   26   51 1   
    52   27   28 2   
    53   27   29 1   
    54   29   46 1   
    55   32   52 1   
    56   32   53 1   
@<TRIPOS>SUBSTRUCTURE
     1 THG         1 TEMP              0 ****  ****    0 ROOT
