@<TRIPOS>MOLECULE
THH
   56    58     1     0     0
SMALL
bcc


@<TRIPOS>ATOM
      1 OE1          0.0000     0.0000     0.0000 o          1 THH      -0.920800
      2 CD           1.3420     0.0000     0.0000 c          1 THH       0.983600
      3 OE2          1.9470     0.0000     1.0450 o          1 THH      -0.920800
      4 CG           2.0950     0.0010    -1.3060 c3         1 THH      -0.144400
      5 CB           3.5990     0.0010    -1.0280 c3         1 THH      -0.014400
      6 CA           4.3620     0.0020    -2.3530 c3         1 THH      -0.116300
      7 CT           5.8440     0.0020    -2.0790 c          1 THH       0.988600
      8 O1           6.4380     1.0470    -1.9680 o          1 THH      -0.909300
      9 O2           6.5040    -1.1600    -1.9570 o          1 THH      -0.909300
     10 N            4.0080    -1.1940    -3.1220 ns         1 THH      -0.071900
     11 C            4.0290    -1.1600    -4.4690 c          1 THH       0.562700
     12 O            4.3430    -0.1360    -5.0460 o          1 THH      -0.700100
     13 C12          3.6730    -2.3640    -5.2430 ca         1 THH      -0.153600
     14 C13          3.6940    -2.3300    -6.6400 ca         1 THH      -0.019500
     15 C14          3.3610    -3.4550    -7.3600 ca         1 THH      -0.206000
     16 C15          3.0030    -4.6260    -6.6960 ca         1 THH       0.046600
     17 C16          2.9750    -4.6620    -5.3050 ca         1 THH      -0.206000
     18 C17          3.3120    -3.5420    -4.5810 ca         1 THH      -0.019500
     19 N10          2.6670    -5.7600    -7.4260 nu         1 THH      -0.456600
     20 C9           2.2910    -6.9930    -6.7300 c3         1 THH       0.163800
     21 C6           2.0910    -8.1150    -7.7520 c3         1 THH       0.082500
     22 C7           3.4210    -8.4030    -8.4610 c3         1 THH       0.133800
     23 N8           3.1430    -9.4140    -9.4980 nu         1 THH      -0.494900
     24 C8A          2.2480   -10.4300    -9.1670 ca         1 THH       0.560200
     25 N1           2.0930   -11.4650    -9.9880 nb         1 THH      -0.742000
     26 C4A          1.5150   -10.3710    -7.9890 ca         1 THH      -0.344000
     27 N5           1.6330    -9.3230    -7.0670 nh         1 THH      -0.312000
     28 C11          0.2800    -9.0410    -6.5730 c3         1 THH       0.121100
     29 C4           0.6270   -11.4160    -7.7180 ca         1 THH       0.692600
     30 O4          -0.1160   -11.4080    -6.5830 oh         1 THH      -0.582300
     31 N3           0.5210   -12.4150    -8.5860 nb         1 THH      -0.793000
     32 C2           1.2420   -12.4360    -9.6960 ca         1 THH       0.745900
     33 NA2          1.1040   -13.5020   -10.5720 nv         1 THH      -0.515500
     34 HG1          1.8320     0.8860    -1.8730 hc         1 THH       0.000200
     35 HG2          1.8320    -0.8830    -1.8740 hc         1 THH       0.000200
     36 HB1          3.8610     0.8850    -0.4590 hc         1 THH       0.033200
     37 HB2          3.8610    -0.8840    -0.4610 hc         1 THH       0.033200
     38 HA           4.1010     0.8870    -2.9200 h1         1 THH       0.051700
     39 HN           3.7180    -2.0260    -2.6470 hn         1 THH       0.164500
     40 H13          3.9720    -1.4190    -7.1560 ha         1 THH       0.121000
     41 H14          3.3800    -3.4300    -8.4420 ha         1 THH       0.099000
     42 H16          2.6960    -5.5740    -4.7920 ha         1 THH       0.099000
     43 H17          3.2900    -3.5700    -3.4980 ha         1 THH       0.121000
     44 H10          2.7320    -5.7490    -8.4240 hn         1 THH       0.285800
     45 H91          1.3690    -6.8330    -6.1840 h1         1 THH       0.029700
     46 H92          3.0760    -7.2710    -6.0380 h1         1 THH       0.029700
     47 H6           1.3510    -7.8140    -8.4840 h1         1 THH       0.032700
     48 H71          3.7790    -7.4960    -8.9340 h1         1 THH       0.036700
     49 H72          4.1280    -8.8090    -7.7470 h1         1 THH       0.036700
     50 HN8          4.0030    -9.8160    -9.8130 hn         1 THH       0.270800
     51 H111         0.0970    -7.9740    -6.6090 h1         1 THH       0.026700
     52 H112        -0.4450    -9.5530    -7.1940 h1         1 THH       0.026700
     53 H113         0.1890    -9.3880    -5.5510 h1         1 THH       0.026700
     54 HO4         -0.3340   -12.2940    -6.3440 ho         1 THH       0.405000
     55 HA21         0.4620   -14.2410   -10.3650 hn         1 THH       0.270800
     56 HA22         1.6430   -13.5300   -11.4150 hn         1 THH       0.270800
@<TRIPOS>BOND
     1     1     2 1   
     2     2     3 1   
     3     2     4 1   
     4     4     5 1   
     5     4    34 1   
     6     4    35 1   
     7     5     6 1   
     8     5    36 1   
     9     5    37 1   
    10     6     7 1   
    11     6    10 1   
    12     6    38 1   
    13     7     8 1   
    14     7     9 1   
    15    10    11 1   
    16    10    39 1   
    17    11    12 2   
    18    11    13 1   
    19    13    14 ar  
    20    13    18 ar  
    21    14    15 ar  
    22    14    40 1   
    23    15    16 ar  
    24    15    41 1   
    25    16    17 ar  
    26    16    19 1   
    27    17    18 ar  
    28    17    42 1   
    29    18    43 1   
    30    19    20 1   
    31    19    44 1   
    32    20    21 1   
    33    20    45 1   
    34    20    46 1   
    35    21    22 1   
    36    21    27 1   
    37    21    47 1   
    38    22    23 1   
    39    22    48 1   
    40    22    49 1   
    41    23    24 1   
    42    23    50 1   
    43    24    25 ar  
    44    24    26 ar  
    45    25    32 ar  
    46    26    27 1   
    47    26    29 ar  
    48    27    28 1   
    49    28    51 1   
    50    28    52 1   
    51    28    53 1   
    52    29    30 1   
    53    29    31 ar  
    54    30    54 1   
    55    31    32 ar  
    56    32    33 1   
    57    33    55 1   
    58    33    56 1   
@<TRIPOS>SUBSTRUCTURE
     1 THH         1 TEMP              0 ****  ****    0 ROOT
