@<TRIPOS>MOLECULE
THI
   32    35     1     0     0
SMALL
bcc


@<TRIPOS>ATOM
      1 S1          0.1290    0.1910    0.1180 ss        1 THI     -0.331200
      2 C2          1.8670   -0.1640    0.1650 c3        1 THI     -0.030300
      3 C3          2.2790   -0.2770    1.6350 c3        1 THI      0.059000
      4 N4          1.1400   -0.5220    2.4940 n         1 THI     -0.407800
      5 C5          0.9020   -1.8650    2.9560 c         1 THI      0.692100
      6 O5          1.7910   -2.6130    3.3720 o         1 THI     -0.572500
      7 C6         -0.5590   -2.1320    2.8630 ca        1 THI     -0.163600
      8 C7         -1.2920   -3.2360    3.2570 ca        1 THI     -0.052000
      9 C8         -2.6730   -3.2310    3.0110 ca        1 THI     -0.141000
     10 C9         -3.2840   -2.1440    2.3920 ca        1 THI     -0.100000
     11 C10        -2.5420   -1.0200    1.9960 ca        1 THI     -0.102000
     12 C11        -1.1790   -1.0230    2.2300 ca        1 THI     -0.055300
     13 C12        -0.1260    0.0290    1.9400 c3        1 THI      0.281100
     14 C1'        -0.5280    1.3650    2.4960 ca        1 THI     -0.078300
     15 C2'        -1.3740    2.1850    1.7350 ca        1 THI     -0.103500
     16 C3'        -1.7920    3.4170    2.2330 ca        1 THI     -0.135500
     17 C4'        -1.3700    3.8430    3.4930 ca        1 THI     -0.121000
     18 C5'        -0.5310    3.0300    4.2530 ca        1 THI     -0.135500
     19 C6'        -0.1120    1.7930    3.7610 ca        1 THI     -0.103500
     20 H21         2.4270    0.6590   -0.3370 h1        1 THI      0.080700
     21 H22         2.0660   -1.1130   -0.3850 h1        1 THI      0.080700
     22 H31         3.0370   -1.0980    1.7760 h1        1 THI      0.081700
     23 H32         2.7450    0.6940    1.9680 h1        1 THI      0.081700
     24 H7         -0.8050   -4.0910    3.7480 ha        1 THI      0.155000
     25 H8         -3.2770   -4.0990    3.3150 ha        1 THI      0.140000
     26 H9         -4.3700   -2.1590    2.2080 ha        1 THI      0.139000
     27 H10        -3.0340   -0.1620    1.5160 ha        1 THI      0.149000
     28 H2'        -1.6960    1.8610    0.7320 ha        1 THI      0.146500
     29 H3'        -2.4520    4.0550    1.6280 ha        1 THI      0.134000
     30 H4'        -1.6990    4.8170    3.8840 ha        1 THI      0.133000
     31 H5'        -0.1960    3.3610    5.2470 ha        1 THI      0.134000
     32 H6'         0.5460    1.1650    4.3800 ha        1 THI      0.146500
@<TRIPOS>BOND
     1    1    2 1
     2    1   13 1
     3    2    3 1
     4    2   20 1
     5    2   21 1
     6    3    4 1
     7    3   22 1
     8    3   23 1
     9    4    5 1
    10    4   13 1
    11    5    6 2
    12    5    7 1
    13    7    8 ar
    14    7   12 ar
    15    8    9 ar
    16    8   24 1
    17    9   10 ar
    18    9   25 1
    19   10   11 ar
    20   10   26 1
    21   11   12 ar
    22   11   27 1
    23   12   13 1
    24   13   14 1
    25   14   15 ar
    26   14   19 ar
    27   15   16 ar
    28   15   28 1
    29   16   17 ar
    30   16   29 1
    31   17   18 ar
    32   17   30 1
    33   18   19 ar
    34   18   31 1
    35   19   32 1
@<TRIPOS>SUBSTRUCTURE
     1 THI         1 TEMP              0 ****  ****    0 ROOT
