@<TRIPOS>MOLECULE
THJ
    5     4     1     0     0
SMALL
bcc


@<TRIPOS>ATOM
      1 S1         -0.3930   -0.0010    0.0000 s6        1 THJ      1.292800
      2 O1         -0.8490   -1.3570    0.0080 o         1 THJ     -0.753200
      3 O2         -0.8700    0.6640   -1.1730 o         1 THJ     -0.753200
      4 O3         -0.8660    0.6770    1.1680 o         1 THJ     -0.753200
      5 S2          1.7350    0.0180   -0.0030 s         1 THJ     -1.034200
@<TRIPOS>BOND
     1    1    2 1   
     2    1    3 1   
     3    1    4 1   
     4    1    5 1   
@<TRIPOS>SUBSTRUCTURE
     1 THJ         1 TEMP              0 ****  ****    0 ROOT
