@<TRIPOS>MOLECULE
molecule
    5     4     1     0     0
SMALL
bcc


@<TRIPOS>ATOM
      1 S1          -0.4070     0.0000    -0.0000 s6         1 THJ       1.244800
      2 O1          -0.8260    -1.3930     0.0120 o          1 THJ      -0.739200
      3 O2          -0.8260     0.6860    -1.2120 o          1 THJ      -0.739200
      4 O3          -0.8260     0.7070     1.2000 o          1 THJ      -0.739200
      5 S2           1.6430    -0.0000     0.0000 s          1 THJ      -1.027200
@<TRIPOS>BOND
     1     1     2 1
     2     1     3 1
     3     1     4 1
     4     1     5 1
@<TRIPOS>SUBSTRUCTURE
     1 THJ         1 TEMP              0 ****  ****    0 ROOT
