@<TRIPOS>MOLECULE
THK
   56    59     1     0     0
SMALL
bcc


@<TRIPOS>ATOM
      1 N1           0.0000     0.0000     0.0000 n3         1 THK      -0.521600
      2 C2           1.4670     0.0000     0.0000 c3         1 THK       0.135300
      3 C3           1.9850     0.0000     1.4390 c3         1 THK      -0.040400
      4 C4           1.5040    -1.2680     2.1480 c3         1 THK       0.226100
      5 O19          2.0810    -2.4160     1.5210 oh         1 THK      -0.587800
      6 C5          -0.0230    -1.3440     2.0490 c3         1 THK      -0.040400
      7 C6          -0.4370    -1.2740     0.5790 c3         1 THK       0.135300
      8 C7          -0.4220    -0.0080    -1.4060 c3         1 THK       0.148800
      9 C8          -1.9500    -0.0070    -1.4790 c3         1 THK      -0.093400
     10 C9          -2.3910    -0.0150    -2.9440 c3         1 THK       0.007600
     11 C10         -3.9180    -0.0150    -3.0180 c3         1 THK       0.265500
     12 C12         -4.3860     0.0470    -4.4490 ca         1 THK      -0.089300
     13 C13         -4.5970    -1.1210    -5.1570 ca         1 THK      -0.055500
     14 C14         -5.0240    -1.0660    -6.4700 ca         1 THK      -0.133500
     15 C15         -5.2400     0.1600    -7.0770 ca         1 THK       0.111900
     16 F18         -5.6590     0.2150    -8.3600 f          1 THK      -0.127900
     17 C16         -5.0300     1.3280    -6.3660 ca         1 THK      -0.133500
     18 C17         -4.6070     1.2710    -5.0520 ca         1 THK      -0.055500
     19 C20          1.9160    -1.2250     3.5970 ca         1 THK      -0.133300
     20 C21          2.1690    -2.4000     4.2790 ca         1 THK      -0.083000
     21 C22          2.5490    -2.3610     5.6070 ca         1 THK      -0.099500
     22 C23          2.6750    -1.1450     6.2540 ca         1 THK      -0.031600
     23 Cl6          3.1510    -1.0950     7.9240 cl         1 THK      -0.027400
     24 C24          2.4220     0.0310     5.5710 ca         1 THK      -0.099500
     25 C25          2.0480    -0.0100     4.2420 ca         1 THK      -0.083000
     26 S51         -4.6150    -1.4860    -2.1640 ss         1 THK      -0.404700
     27 C52         -5.0170    -0.8330    -0.4980 c3         1 THK       0.096700
     28 C55         -5.6400     0.5610    -0.7520 c3         1 THK       0.096700
     29 S58         -4.6200     1.3680    -2.0370 ss         1 THK      -0.404700
     30 H21A         1.8260     0.8860    -0.5100 h1         1 THK       0.020450
     31 H22A         1.8260    -0.8860    -0.5100 h1         1 THK       0.020450
     32 H31          3.0680     0.0210     1.4320 hc         1 THK       0.030950
     33 H32          1.6050     0.8710     1.9590 hc         1 THK       0.030950
     34 HO9          3.0200    -2.3760     1.5950 ho         1 THK       0.397000
     35 H51         -0.4610    -0.5120     2.5870 hc         1 THK       0.030950
     36 H52         -0.3660    -2.2790     2.4770 hc         1 THK       0.030950
     37 H61         -1.5150    -1.3510     0.5060 h1         1 THK       0.020450
     38 H62          0.0250    -2.0910     0.0370 h1         1 THK       0.020450
     39 H71         -0.0370     0.8740    -1.9040 h1         1 THK       0.013200
     40 H72         -0.0380    -0.8950    -1.8940 h1         1 THK       0.013200
     41 H81         -2.3350     0.8800    -0.9910 hc         1 THK       0.051200
     42 H82         -2.3360    -0.8890    -0.9810 hc         1 THK       0.051200
     43 H91         -2.0070    -0.9030    -3.4320 hc         1 THK       0.035700
     44 H92         -2.0060     0.8660    -3.4420 hc         1 THK       0.035700
     45 H13         -4.4280    -2.0800    -4.6830 ha         1 THK       0.129000
     46 H14         -5.1890    -1.9820    -7.0250 ha         1 THK       0.121000
     47 H16         -5.2010     2.2880    -6.8390 ha         1 THK       0.121000
     48 H17         -4.4420     2.1860    -4.4950 ha         1 THK       0.129000
     49 H21          2.0700    -3.3520     3.7720 ha         1 THK       0.121000
     50 H22          2.7460    -3.2830     6.1410 ha         1 THK       0.115500
     51 H24          2.5230     0.9830     6.0770 ha         1 THK       0.115500
     52 H25          1.8490     0.9110     3.7070 ha         1 THK       0.121000
     53 H521        -4.1160    -0.7380     0.0950 h1         1 THK       0.061200
     54 H522        -5.7330    -1.4790    -0.0050 h1         1 THK       0.061200
     55 H551        -5.6170     1.1470     0.1590 h1         1 THK       0.061200
     56 H552        -6.6590     0.4520    -1.1040 h1         1 THK       0.061200
@<TRIPOS>BOND
     1     1     2 1   
     2     1     7 1   
     3     1     8 1   
     4     2     3 1   
     5     2    30 1   
     6     2    31 1   
     7     3     4 1   
     8     3    32 1   
     9     3    33 1   
    10     4     5 1   
    11     4     6 1   
    12     4    19 1   
    13     5    34 1   
    14     6     7 1   
    15     6    35 1   
    16     6    36 1   
    17     7    37 1   
    18     7    38 1   
    19     8     9 1   
    20     8    39 1   
    21     8    40 1   
    22     9    10 1   
    23     9    41 1   
    24     9    42 1   
    25    10    11 1   
    26    10    43 1   
    27    10    44 1   
    28    11    12 1   
    29    11    26 1   
    30    11    29 1   
    31    12    13 ar  
    32    12    18 ar  
    33    13    14 ar  
    34    13    45 1   
    35    14    15 ar  
    36    14    46 1   
    37    15    16 1   
    38    15    17 ar  
    39    17    18 ar  
    40    17    47 1   
    41    18    48 1   
    42    19    20 ar  
    43    19    25 ar  
    44    20    21 ar  
    45    20    49 1   
    46    21    22 ar  
    47    21    50 1   
    48    22    23 1   
    49    22    24 ar  
    50    24    25 ar  
    51    24    51 1   
    52    25    52 1   
    53    26    27 1   
    54    27    28 1   
    55    27    53 1   
    56    27    54 1   
    57    28    29 1   
    58    28    55 1   
    59    28    56 1   
@<TRIPOS>SUBSTRUCTURE
     1 THK         1 TEMP              0 ****  ****    0 ROOT
