@<TRIPOS>MOLECULE
THL
   54    53     1     0     0
SMALL
bcc


@<TRIPOS>ATOM
      1 N           1.0930   -1.3740   -0.5100 n4        1 THL     -0.056000
      2 CA          2.1740   -1.0000    0.3950 c2        1 THL     -0.191000
      3 C           0.3860   -0.2860   -1.2920 c2        1 THL      0.285000
      4 O           1.0330    0.1560   -2.2440 o         1 THL     -0.290000
      5 C4         -9.9600    4.3720    1.1160 c2        1 THL      0.355000
      6 O4         -9.8270    5.2300    0.2100 o         1 THL     -0.410000
      7 C4A        -9.9150    2.9500    0.8370 c2        1 THL     -0.580000
      8 N5         -9.6100    2.5410   -0.5110 n4        1 THL      0.114000
      9 C6         -9.2190    1.0980   -0.6650 c3        1 THL     -0.059000
     10 C7         -9.9640    0.1790    0.3370 c3        1 THL     -0.051000
     11 N8        -10.1090    0.6430    1.6770 n2        1 THL     -0.354000
     12 C8A       -10.1240    1.9560    1.8620 c2        1 THL      0.239000
     13 C9         -7.7200    0.9150   -0.5380 c2        1 THL     -0.158000
     14 N10        -6.9490    1.3750   -1.4710 n2        1 THL     -0.025000
     15 C11        -0.9890    0.0260   -0.9040 c2        1 THL     -0.270000
     16 C12        -1.7950    0.6550   -1.7860 c1        1 THL     -0.241000
     17 C13        -4.4070    1.0710   -1.5020 c1        1 THL     -0.171000
     18 C14        -5.6140    1.1930   -1.4390 c1        1 THL     -0.356000
     19 C15        -2.6800   -0.7340    0.7200 c2        1 THL     -0.200000
     20 C16        -1.4330   -0.3610    0.4280 c2        1 THL     -0.134000
     21 N3        -10.1700    4.7760    2.4540 n2        1 THL     -0.301000
     22 N1        -10.3820    2.4560    3.1600 na        1 THL     -0.290000
     23 C2        -10.2970    3.8480    3.3970 c2        1 THL      0.228000
     24 CB          2.4790    0.2300    0.8280 c2        1 THL     -0.146000
     25 CG          1.8210    1.5080    0.4870 c3        1 THL     -0.207000
     26 CD          2.2380    2.6340    1.3860 c2        1 THL      0.308000
     27 OE1         2.5100    3.7850    1.0430 o         1 THL     -0.310000
     28 OE2         2.3110    2.4380    2.7370 oh        1 THL     -0.296000
     29 CT          3.0300   -2.2360    0.8490 c2        1 THL      0.377000
     30 O1          3.8260   -2.0300    1.7880 o         1 THL     -0.513500
     31 O2          2.8140   -3.3010    0.2170 o         1 THL     -0.513500
     32 HN         -0.6810   -0.2810    1.2350 ha        1 THL      0.094000
     33 HA          1.5270   -2.0500   -1.1650 hn        1 THL      0.258000
     34 HN5        -8.8520    3.1500   -0.8570 hn        1 THL      0.226500
     35 H6        -10.4380    2.7200   -1.0870 hn        1 THL      0.226500
     36 H71        -9.5400    0.8010   -1.7100 hx        1 THL      0.119000
     37 H72        -9.4020   -0.7970    0.3800 h1        1 THL      0.091000
     38 HN8       -10.9850   -0.0340   -0.0990 h1        1 THL      0.091000
     39 H91        -5.9610   -0.8610    1.7290 ha        1 THL      0.000500
     40 H92        -5.3350   -0.7900    1.4810 ha        1 THL      0.000500
     41 H10        -7.3930    0.3700    0.3690 h4        1 THL      0.144000
     42 H12        -3.1860    0.9140   -1.5760 ha        1 THL      0.360000
     43 H13        -1.4240    0.9670   -2.7690 ha        1 THL      0.084000
     44 H15        -3.4740   -0.7870   -0.0400 ha        1 THL      0.120500
     45 H16        -2.9900   -0.9780    1.7450 ha        1 THL      0.120500
     46 HA21      -11.0950    3.8190    5.2760 hn        1 THL      0.195000
     47 HA22      -10.3350    5.2380    4.8830 hn        1 THL      0.195000
     48 HN1       -10.3260    1.8190    3.9240 hn        1 THL      0.246000
     49 HB1         0.6980    1.4210    0.5500 hc        1 THL      0.146500
     50 HB2         3.3570    0.2840    1.5070 ha        1 THL      0.186000
     51 HG1         2.1170    1.5140    2.9490 ho        1 THL      0.233000
     52 HG2         2.0700    1.7910   -0.5760 hc        1 THL      0.146500
     53 NA2       -10.3480    4.2450    4.7700 nh        1 THL     -0.323000
     54 H2          0.4060   -1.8930    0.0490 hn        1 THL      0.258000
@<TRIPOS>BOND
     1    1    2 1   
     2    1    3 1   
     3    1   33 1   
     4    1   54 1   
     5    2   24 1   
     6    2   29 1   
     7    3    4 1   
     8    3   15 1   
     9    5    6 1   
    10    5    7 1   
    11    5   21 1   
    12    7    8 1   
    13    7   12 1   
    14    8    9 1   
    15    8   34 1   
    16    8   35 1   
    17    9   10 1   
    18    9   13 1   
    19    9   36 1   
    20   10   11 1   
    21   10   37 1   
    22   10   38 1   
    23   11   12 1   
    24   12   22 1   
    25   13   14 1   
    26   13   41 1   
    27   14   18 1   
    28   15   16 1   
    29   15   20 1   
    30   16   43 1   
    31   17   18 1   
    32   17   42 1   
    33   19   20 1   
    34   19   44 1   
    35   19   45 1   
    36   20   32 1   
    37   21   23 1   
    38   22   23 1   
    39   22   48 1   
    40   23   53 1   
    41   24   25 1   
    42   24   50 1   
    43   25   26 1   
    44   25   49 1   
    45   25   52 1   
    46   26   27 1   
    47   26   28 1   
    48   28   51 1   
    49   29   30 1   
    50   29   31 1   
    51   39   40 1   
    52   46   53 1   
    53   47   53 1   
@<TRIPOS>SUBSTRUCTURE
     1 THL         1 TEMP              0 ****  ****    0 ROOT
