@<TRIPOS>MOLECULE
THM
   31    32     1     0     0
SMALL
bcc


@<TRIPOS>ATOM
      1 O5'         0.1460   -1.0900    0.3730 oh        1 THM     -0.593800
      2 C5'         1.5360   -0.8550    0.3220 c3        1 THM      0.115400
      3 C4'         1.9970   -0.0020    1.5030 c3        1 THM      0.098100
      4 O4'         1.7120   -0.7030    2.7240 os        1 THM     -0.434600
      5 C3'         3.5100    0.2800    1.4590 c3        1 THM      0.123100
      6 O3'         3.6740    1.6830    1.3540 oh        1 THM     -0.591800
      7 C2'         4.0680   -0.2550    2.7840 c3        1 THM     -0.136400
      8 C1'         2.9170   -1.0580    3.4180 c3        1 THM      0.317500
      9 N1          3.0920   -2.5110    3.4480 n         1 THM     -0.385000
     10 C2          3.6250   -3.2250    2.3410 c         1 THM      0.810500
     11 O2          4.0930   -2.6440    1.3360 o         1 THM     -0.659500
     12 N3          3.6550   -4.6260    2.3980 n         1 THM     -0.584500
     13 C4          3.1100   -5.3680    3.4600 c         1 THM      0.715700
     14 O4          3.1780   -6.6070    3.4190 o         1 THM     -0.602500
     15 C5          2.4920   -4.5840    4.5450 cc        1 THM     -0.245400
     16 C5M         1.8950   -5.3380    5.6650 c3        1 THM     -0.032900
     17 C6          2.4900   -3.2250    4.4810 cd        1 THM      0.035600
     18 HO5'       -0.0430   -1.4900    1.2320 ho        1 THM      0.409000
     19 H5'1        1.7040   -0.2980   -0.6380 h1        1 THM      0.062200
     20 H5'2        2.0990   -1.8280    0.3060 h1        1 THM      0.062200
     21 H4'         1.4020    0.9510    1.5600 h1        1 THM      0.101700
     22 H3'         3.9910   -0.2420    0.5880 h1        1 THM      0.078700
     23 HO3'        4.6110    1.8410    1.1850 ho        1 THM      0.408000
     24 H2'1        4.9830   -0.8730    2.6130 hc        1 THM      0.081700
     25 H2'2        4.3310    0.5930    3.4650 hc        1 THM      0.081700
     26 H1'         2.7400   -0.7350    4.4890 h2        1 THM      0.086700
     27 HN3         4.0620   -5.1010    1.6200 hn        1 THM      0.353500
     28 HM51        1.1300   -6.0560    5.2750 hc        1 THM      0.053033
     29 HM52        2.6860   -5.9340    6.1880 hc        1 THM      0.053033
     30 HM53        1.4090   -4.6550    6.4020 hc        1 THM      0.053033
     31 H6          2.0150   -2.6120    5.2710 h4        1 THM      0.167000
@<TRIPOS>BOND
     1    1    2 1   
     2    1   18 1   
     3    2    3 1   
     4    2   19 1   
     5    2   20 1   
     6    3    4 1   
     7    3    5 1   
     8    3   21 1   
     9    4    8 1   
    10    5    6 1   
    11    5    7 1   
    12    5   22 1   
    13    6   23 1   
    14    7    8 1   
    15    7   24 1   
    16    7   25 1   
    17    8    9 1   
    18    8   26 1   
    19    9   10 1   
    20    9   17 1   
    21   10   11 2   
    22   10   12 1   
    23   12   13 1   
    24   12   27 1   
    25   13   14 2   
    26   13   15 1   
    27   15   16 1   
    28   15   17 2   
    29   16   28 1   
    30   16   29 1   
    31   16   30 1   
    32   17   31 1   
@<TRIPOS>SUBSTRUCTURE
     1 THM         1 TEMP              0 ****  ****    0 ROOT
