@<TRIPOS>MOLECULE
THN
   35    36     1     0     0
SMALL
bcc


@<TRIPOS>ATOM
      1 S1           0.0000     0.0000     0.0000 ss         1 THN      -0.452300
      2 C2           1.8160     0.0000     0.0000 c3         1 THN       0.134900
      3 C3           2.2620     0.0000     1.4500 c2         1 THN      -0.101400
      4 C3'          2.9260    -1.0110     1.9550 c2         1 THN      -0.214000
      5 C4           1.9130     1.2020     2.2890 c3         1 THN       0.057700
      6 C4'          2.8160     2.3450     1.9040 c          1 THN       0.980600
      7 O4A          4.0060     2.4940     2.5080 o          1 THN      -0.874300
      8 O4B          2.4680     3.1290     1.0540 o          1 THN      -0.874300
      9 N5           0.5340     1.6030     2.0990 n2         1 THN      -0.426900
     10 C6          -0.3010     1.2130     1.2340 c2         1 THN       0.439200
     11 C7          -1.6730     1.8340     1.2680 c3         1 THN      -0.121600
     12 C8          -1.6900     3.0620     0.3950 c          1 THN       0.983600
     13 O9A         -1.4100     4.1400     0.8620 o          1 THN      -0.879800
     14 O9B         -2.0170     2.9570    -0.9030 o          1 THN      -0.879800
     15 N10         -2.6590     0.8700     0.7760 ns         1 THN      -0.103900
     16 C11         -3.9250     0.9050     1.2380 c          1 THN       0.546100
     17 O12         -4.2480     1.7360     2.0600 o          1 THN      -0.671100
     18 C13         -4.9400    -0.0850     0.7300 c3         1 THN      -0.007100
     19 C14         -6.2670     0.1680     1.3980 cc         1 THN       0.151600
     20 C15         -7.2790     0.9780     1.0070 cd         1 THN      -0.171000
     21 C16         -8.4190     1.0500     1.7840 cd         1 THN      -0.123000
     22 C17         -8.4870     0.3170     2.9210 cc         1 THN      -0.013100
     23 S19         -6.9100    -0.5200     2.9150 ss         1 THN      -0.356800
     24 H21          2.1840    -0.8890    -0.4980 h1         1 THN       0.053200
     25 H22          2.1840     0.8890    -0.4980 h1         1 THN       0.053200
     26 H3'1         3.1650    -1.8660     1.3350 ha         1 THN       0.076500
     27 H3'2         3.2360    -0.9910     2.9930 ha         1 THN       0.076500
     28 H4           2.0680     0.9590     3.3330 h1         1 THN       0.044700
     29 H7          -1.9180     2.1120     2.2860 h1         1 THN       0.071700
     30 H10         -2.3910     0.1800     0.1030 hn         1 THN       0.176500
     31 H131        -5.0490     0.0270    -0.3420 hc         1 THN       0.029700
     32 H132        -4.6070    -1.0910     0.9560 hc         1 THN       0.029700
     33 H15         -7.1990     1.5550     0.0940 ha         1 THN       0.124000
     34 H16         -9.2440     1.6900     1.4920 ha         1 THN       0.096000
     35 H17         -9.2920     0.2510     3.6430 h4         1 THN       0.146000
@<TRIPOS>BOND
     1     1     2 1   
     2     1    10 1   
     3     2     3 1   
     4     2    24 1   
     5     2    25 1   
     6     3     4 2   
     7     3     5 1   
     8     4    26 1   
     9     4    27 1   
    10     5     6 1   
    11     5     9 1   
    12     5    28 1   
    13     6     7 1   
    14     6     8 1   
    15     9    10 2   
    16    10    11 1   
    17    11    12 1   
    18    11    15 1   
    19    11    29 1   
    20    12    13 1   
    21    12    14 1   
    22    15    16 1   
    23    15    30 1   
    24    16    17 2   
    25    16    18 1   
    26    18    19 1   
    27    18    31 1   
    28    18    32 1   
    29    19    20 2   
    30    19    23 1   
    31    20    21 1   
    32    20    33 1   
    33    21    22 2   
    34    21    34 1   
    35    22    23 1   
    36    22    35 1   
@<TRIPOS>SUBSTRUCTURE
     1 THN         1 TEMP              0 ****  ****    0 ROOT
