@<TRIPOS>MOLECULE
THP
   37    38     1     0     0
SMALL
bcc


@<TRIPOS>ATOM
      1 P2         -2.8640    3.5240   -0.5050 p5        1 THP      1.445800
      2 O4P        -2.1560    4.9520   -0.8530 oh        1 THP     -0.807400
      3 O5P        -4.3260    3.7510   -0.3770 o         1 THP     -0.869000
      4 O6P        -2.1090    2.8700    0.5900 o         1 THP     -0.869000
      5 P1          0.1720   -0.1810   -5.9540 p5        1 THP      1.322900
      6 O1P         0.2880   -0.9150   -4.6420 o         1 THP     -0.941500
      7 O2P        -1.0090   -0.5600   -6.8110 o         1 THP     -0.941500
      8 O3P         1.4690   -0.0300   -6.7100 o         1 THP     -0.941500
      9 O5'        -2.5620    2.7890   -1.9360 os        1 THP     -0.607200
     10 C5'        -1.2600    2.3390   -2.2130 c3        1 THP      0.178400
     11 C4'        -0.8070    2.8210   -3.5970 c3        1 THP      0.090100
     12 O4'        -0.2570    4.1490   -3.4490 os        1 THP     -0.467600
     13 C3'         0.2590    1.8990   -4.2770 c3        1 THP      0.212100
     14 O3'        -0.2020    1.4500   -5.4890 os        1 THP     -0.568200
     15 C2'         1.4870    2.8340   -4.4260 c3        1 THP     -0.136400
     16 C1'         0.9310    4.2590   -4.2690 c3        1 THP      0.327500
     17 N1          1.8610    5.2580   -3.7250 n         1 THP     -0.292400
     18 C2          1.7070    6.5940   -4.1900 c         1 THP      0.711100
     19 O2          0.8710    6.9840   -5.0530 o         1 THP     -0.714100
     20 N3          2.5900    7.5750   -3.6920 n         1 THP     -0.603500
     21 C4          3.6210    7.2850   -2.7690 c         1 THP      0.669300
     22 O4          4.3440    8.2670   -2.4210 o         1 THP     -0.789100
     23 C5          3.7220    5.9150   -2.3600 ce        1 THP     -0.532500
     24 C5M         4.7810    5.5440   -1.4090 c3        1 THP      0.062100
     25 C6          2.8360    4.9350   -2.8310 c1        1 THP     -0.027900
     26 H5'1       -1.2750    1.2120   -2.2350 h1        1 THP      0.039200
     27 H5'2       -0.5610    2.6980   -1.4110 h1        1 THP      0.039200
     28 H4'        -1.7010    2.9210   -4.2700 h1        1 THP      0.065700
     29 H3'         0.5160    1.0240   -3.6130 h1        1 THP      0.068700
     30 H2'1        2.2410    2.6080   -3.6340 hc        1 THP      0.064200
     31 H2'2        1.9570    2.7110   -5.4290 hc        1 THP      0.064200
     32 H1'         0.5800    4.6570   -5.2710 h2        1 THP      0.051700
     33 H3          2.4540    8.5070   -4.0000 hn        1 THP      0.282500
     34 H51         4.7340    6.1750   -0.4830 hc        1 THP     -0.013967
     35 H52         5.8000    5.6950   -1.8530 hc        1 THP     -0.013967
     36 H53         4.6810    4.4710   -1.1150 hc        1 THP     -0.013967
     37 H6         -1.5180    4.9130   -1.5610 ho        1 THP      0.455000
@<TRIPOS>BOND
     1    1    2 1
     2    1    3 1
     3    1    4 1
     4    1    9 1
     5    2   37 1
     6    5    6 1
     7    5    7 1
     8    5    8 1
     9    5   14 1
    10    9   10 1
    11   10   11 1
    12   10   26 1
    13   10   27 1
    14   11   12 1
    15   11   13 1
    16   11   28 1
    17   12   16 1
    18   13   14 1
    19   13   15 1
    20   13   29 1
    21   15   16 1
    22   15   30 1
    23   15   31 1
    24   16   17 1
    25   16   32 1
    26   17   18 1
    27   17   25 2
    28   18   19 2
    29   18   20 1
    30   20   21 1
    31   20   33 1
    32   21   22 2
    33   21   23 1
    34   23   24 1
    35   23   25 2
    36   24   34 1
    37   24   35 1
    38   24   36 1
@<TRIPOS>SUBSTRUCTURE
     1 THP         1 TEMP              0 ****  ****    0 ROOT
