@<TRIPOS>MOLECULE
THQ
   21    21     1     0     0
SMALL
bcc


@<TRIPOS>ATOM
      1 N1         -0.2950    0.0980    0.0150 nc        1 THQ     -0.647000
      2 C1          0.9730    0.4730    0.0790 cd        1 THQ      0.325300
      3 S1          1.6480    0.4960    1.6510 ss        1 THQ     -0.273300
      4 C2          0.1620   -0.0210    2.3200 cd        1 THQ     -0.039700
      5 C3         -0.7740   -0.1920    1.2970 cc        1 THQ      0.316600
      6 CM3        -2.1670   -0.6470    1.5240 c3        1 THQ     -0.165400
      7 C4         -0.0430   -0.2240    3.7530 c3        1 THQ     -0.096100
      8 C5         -0.0370   -1.7230    4.1630 c3        1 THQ      0.262400
      9 O7         -0.4660   -1.8750    5.4490 os        1 THQ     -0.557200
     10 P          -2.0960   -2.5110    5.5620 p5        1 THQ      1.318900
     11 O8         -1.9090   -3.9250    5.0890 o         1 THQ     -0.930833
     12 O9         -2.4360   -2.3060    7.0090 o         1 THQ     -0.930833
     13 O10        -2.7590   -1.5870    4.5650 o         1 THQ     -0.930833
     14 H11         1.5420    0.7410   -0.8100 h5        1 THQ      0.012100
     15 HM31       -2.3840   -1.5530    0.9060 hc        1 THQ      0.076033
     16 HM32       -2.8850    0.1590    1.2340 hc        1 THQ      0.076033
     17 HM33       -2.3340   -0.9170    2.6160 hc        1 THQ      0.076033
     18 HC41        0.7400    0.3160    4.3450 hc        1 THQ      0.068200
     19 HC42       -1.0520    0.1840    4.0490 hc        1 THQ      0.068200
     20 HC51        1.0310   -2.0840    4.0650 h1        1 THQ     -0.014800
     21 HC52       -0.6860   -2.2940    3.4410 h1        1 THQ     -0.014800
@<TRIPOS>BOND
     1    1    2 2   
     2    1    5 1   
     3    2    3 1   
     4    2   14 1   
     5    3    4 1   
     6    4    5 2   
     7    4    7 1   
     8    5    6 1   
     9    6   15 1   
    10    6   16 1   
    11    6   17 1   
    12    7    8 1   
    13    7   18 1   
    14    7   19 1   
    15    8    9 1   
    16    8   20 1   
    17    8   21 1   
    18    9   10 1   
    19   10   11 1   
    20   10   12 1   
    21   10   13 1   
@<TRIPOS>SUBSTRUCTURE
     1 THQ         1 TEMP              0 ****  ****    0 ROOT
