@<TRIPOS>MOLECULE
molecule
   36    37     1     0     0
SMALL
bcc


@<TRIPOS>ATOM
      1 P            0.0000     0.0000     0.0000 p5         1 THS       1.007500
      2 O1P          1.4800     0.0000     0.0000 o          1 THS      -0.644300
      3 S2P         -0.7060     0.0000     1.9990 sh         1 THS      -0.477200
      4 S3P         -0.7060    -1.7320    -0.9980 sh         1 THS      -0.477200
      5 O5'         -0.5370     1.3140    -0.7590 os         1 THS      -0.428200
      6 C5'         -0.0300     1.2560    -2.0930 c3         1 THS       0.117400
      7 C4'         -0.5060     2.4830    -2.8730 c3         1 THS       0.150100
      8 O4'          0.0700     3.6920    -2.3290 os         1 THS      -0.387600
      9 C3'          0.0290     2.4470    -4.3270 c3         1 THS       0.119100
     10 O3'         -0.8380     1.6910    -5.1730 oh         1 THS      -0.599800
     11 C2'          0.0120     3.9440    -4.7160 c3         1 THS      -0.143400
     12 C1'          0.0090     4.6850    -3.3650 c3         1 THS       0.321500
     13 N1           1.1750     5.5680    -3.2780 n          1 THS      -0.366000
     14 C2           2.4120     5.0480    -3.3640 c          1 THS       0.815500
     15 O2           2.5490     3.8490    -3.5120 o          1 THS      -0.657500
     16 N3           3.5010     5.8350    -3.2870 ns         1 THS      -0.558500
     17 C4           3.3650     7.1670    -3.1270 c          1 THS       0.707700
     18 O4           4.3500     7.8810    -3.0580 o          1 THS      -0.615500
     19 C5           2.0700     7.7270    -3.0300 cc         1 THS      -0.268400
     20 C5M          1.8910     9.2120    -2.8470 c3         1 THS      -0.014900
     21 C6           0.9940     6.9140    -3.1110 cd         1 THS       0.029600
     22 HSP2         0.3150    -0.1710     2.8290 hs         1 THS       0.358300
     23 HSP3        -0.7510    -2.7470    -0.1440 hs         1 THS       0.358300
     24 H5'1         1.0530     1.2420    -2.0670 h1         1 THS       0.083700
     25 H5'2        -0.3920     0.3570    -2.5780 h1         1 THS       0.083700
     26 H4'         -1.5870     2.5460    -2.8710 h1         1 THS       0.079700
     27 H3'          1.0390     2.0570    -4.3520 h1         1 THS       0.081700
     28 HO3'        -0.3250     1.2310    -5.8180 ho         1 THS       0.415000
     29 H2'1        -0.8840     4.1790    -5.2770 hc         1 THS       0.077200
     30 H2'2         0.9000     4.1970    -5.2830 hc         1 THS       0.077200
     31 H1'         -0.9030     5.2620    -3.2660 h2         1 THS       0.076700
     32 HN3          4.4140     5.4310    -3.3530 hn         1 THS       0.365500
     33 HM51         0.8340     9.4440    -2.7880 hc         1 THS       0.049700
     34 HM52         2.3810     9.5250    -1.9330 hc         1 THS       0.049700
     35 HM53         2.3290     9.7350    -3.6890 hc         1 THS       0.049700
     36 H6          -0.0050     7.3250    -3.0400 h4         1 THS       0.166000
@<TRIPOS>BOND
     1     1     2 2
     2     1     3 1
     3     1     4 1
     4     1     5 1
     5     3    22 1
     6     4    23 1
     7     5     6 1
     8     6     7 1
     9     6    24 1
    10     6    25 1
    11     7     8 1
    12     7     9 1
    13     7    26 1
    14     8    12 1
    15     9    10 1
    16     9    11 1
    17     9    27 1
    18    10    28 1
    19    11    12 1
    20    11    29 1
    21    11    30 1
    22    12    13 1
    23    12    31 1
    24    13    14 1
    25    13    21 1
    26    14    15 2
    27    14    16 1
    28    16    17 1
    29    16    32 1
    30    17    18 2
    31    17    19 1
    32    19    20 1
    33    19    21 2
    34    20    33 1
    35    20    34 1
    36    20    35 1
    37    21    36 1
@<TRIPOS>SUBSTRUCTURE
     1 THS         1 TEMP              0 ****  ****    0 ROOT
