@<TRIPOS>MOLECULE
THT
   63    62     1     0     0
SMALL
bcc


@<TRIPOS>ATOM
      1 C1           0.0000     0.0000     0.0000 c3         1 THT      -0.066100
      2 C2           1.5070     0.0000     0.0000 c          1 THT       0.573100
      3 O2           2.1130     0.0000     1.0490 o          1 THT      -0.641100
      4 N3           2.1810    -0.0000    -1.1680 ns         1 THT      -0.211900
      5 C4           3.6460     0.0000    -1.1680 c3         1 THT       0.069000
      6 C5           4.1560    -0.0000    -2.6100 c3         1 THT       0.062700
      7 S6           5.9660     0.0000    -2.6100 ss         1 THT      -0.313700
      8 C7           6.2630    -0.0000    -4.2970 c          1 THT       0.632700
      9 O7           5.3340    -0.0000    -5.0750 o          1 THT      -0.561100
     10 C8           7.6790    -0.0000    -4.8120 c3         1 THT      -0.099400
     11 C9           7.6640    -0.0000    -6.3420 c3         1 THT      -0.022400
     12 C10          9.1020    -0.0000    -6.8660 c3         1 THT      -0.029400
     13 C11          9.0890    -0.0000    -8.3940 c3         1 THT      -0.027400
     14 C12         10.5250    -0.0000    -8.9170 c3         1 THT      -0.029400
     15 C13         10.5120    -0.0000   -10.4470 c3         1 THT      -0.028400
     16 C14         11.9490    -0.0000   -10.9710 c3         1 THT      -0.029400
     17 C15         11.9360    -0.0000   -12.5000 c3         1 THT      -0.029400
     18 C16         13.3730    -0.0000   -13.0240 c3         1 THT      -0.029400
     19 C17         13.3590    -0.0000   -14.5540 c3         1 THT      -0.029400
     20 C18         14.7960    -0.0000   -15.0780 c3         1 THT      -0.029400
     21 C19         14.7830    -0.0000   -16.6060 c3         1 THT      -0.029400
     22 C20         16.2200    -0.0000   -17.1300 c3         1 THT      -0.029400
     23 C21         16.2070    -0.0000   -18.6600 c3         1 THT      -0.028400
     24 C22         17.6440    -0.0000   -19.1830 c3         1 THT       0.005900
     25 HC11        -0.3610    -0.8840    -0.5110 hc         1 THT       0.022700
     26 HC12        -0.3610    -0.0000     1.0210 hc         1 THT       0.022700
     27 HC13        -0.3610     0.8850    -0.5110 hc         1 THT       0.022700
     28 HN31         1.6800    -0.0000    -2.0350 hn         1 THT       0.176500
     29 HC41         4.0070    -0.8840    -0.6580 h1         1 THT       0.037700
     30 HC42         4.0070     0.8840    -0.6580 h1         1 THT       0.037700
     31 HC51         3.7950     0.8840    -3.1200 h1         1 THT       0.051700
     32 HC52         3.7950    -0.8840    -3.1200 h1         1 THT       0.051700
     33 HC81         8.1930    -0.8850    -4.4550 hc         1 THT       0.044700
     34 HC82         8.1930     0.8850    -4.4550 hc         1 THT       0.044700
     35 HC91         7.1500    -0.8850    -6.6980 hc         1 THT       0.027700
     36 HC92         7.1500     0.8850    -6.6980 hc         1 THT       0.027700
     37 H101         9.6160    -0.8840    -6.5090 hc         1 THT       0.014700
     38 H102         9.6160     0.8840    -6.5090 hc         1 THT       0.014700
     39 H111         8.5750    -0.8840    -8.7500 hc         1 THT       0.016700
     40 H112         8.5750     0.8840    -8.7500 hc         1 THT       0.016700
     41 H121        11.0390    -0.8840    -8.5610 hc         1 THT       0.014700
     42 H122        11.0390     0.8840    -8.5610 hc         1 THT       0.014700
     43 H131         9.9980     0.8840   -10.8040 hc         1 THT       0.014700
     44 H132         9.9980    -0.8840   -10.8040 hc         1 THT       0.014700
     45 H141        12.4630    -0.8840   -10.6150 hc         1 THT       0.014700
     46 H142        12.4630     0.8840   -10.6150 hc         1 THT       0.014700
     47 H151        11.4220     0.8840   -12.8560 hc         1 THT       0.014700
     48 H152        11.4220    -0.8840   -12.8560 hc         1 THT       0.014700
     49 H161        13.8870     0.8840   -12.6670 hc         1 THT       0.014700
     50 H162        13.8870    -0.8840   -12.6670 hc         1 THT       0.014700
     51 H171        12.8450    -0.8840   -14.9100 hc         1 THT       0.014700
     52 H172        12.8450     0.8840   -14.9100 hc         1 THT       0.014700
     53 H181        15.3100    -0.8840   -14.7210 hc         1 THT       0.014700
     54 H182        15.3100     0.8840   -14.7210 hc         1 THT       0.014700
     55 H191        14.2690    -0.8840   -16.9630 hc         1 THT       0.014700
     56 H192        14.2690     0.8840   -16.9630 hc         1 THT       0.014700
     57 H201        16.7340     0.8840   -16.7740 hc         1 THT       0.014700
     58 H202        16.7340    -0.8840   -16.7740 hc         1 THT       0.014700
     59 H211        15.6930    -0.8840   -19.0170 hc         1 THT       0.011700
     60 H212        15.6930     0.8840   -19.0170 hc         1 THT       0.011700
     61 H221        17.6340     0.0000   -20.2670 hc         1 THT       0.000033
     62 H222        18.1580     0.8840   -18.8270 hc         1 THT       0.000033
     63 H223        18.1580    -0.8850   -18.8270 hc         1 THT       0.000033
@<TRIPOS>BOND
     1     1     2 1   
     2     1    25 1   
     3     1    26 1   
     4     1    27 1   
     5     2     3 2   
     6     2     4 1   
     7     4     5 1   
     8     4    28 1   
     9     5     6 1   
    10     5    29 1   
    11     5    30 1   
    12     6     7 1   
    13     6    31 1   
    14     6    32 1   
    15     7     8 1   
    16     8     9 2   
    17     8    10 1   
    18    10    11 1   
    19    10    33 1   
    20    10    34 1   
    21    11    12 1   
    22    11    35 1   
    23    11    36 1   
    24    12    13 1   
    25    12    37 1   
    26    12    38 1   
    27    13    14 1   
    28    13    39 1   
    29    13    40 1   
    30    14    15 1   
    31    14    41 1   
    32    14    42 1   
    33    15    16 1   
    34    15    43 1   
    35    15    44 1   
    36    16    17 1   
    37    16    45 1   
    38    16    46 1   
    39    17    18 1   
    40    17    47 1   
    41    17    48 1   
    42    18    19 1   
    43    18    49 1   
    44    18    50 1   
    45    19    20 1   
    46    19    51 1   
    47    19    52 1   
    48    20    21 1   
    49    20    53 1   
    50    20    54 1   
    51    21    22 1   
    52    21    55 1   
    53    21    56 1   
    54    22    23 1   
    55    22    57 1   
    56    22    58 1   
    57    23    24 1   
    58    23    59 1   
    59    23    60 1   
    60    24    61 1   
    61    24    62 1   
    62    24    63 1   
@<TRIPOS>SUBSTRUCTURE
     1 THT         1 TEMP              0 ****  ****    0 ROOT
