@<TRIPOS>MOLECULE
molecule
   30    31     1     0     0
SMALL
bcc


@<TRIPOS>ATOM
      1 N1           0.0000     0.0000     0.0000 n          1 THU      -0.509800
      2 C2           1.3430     0.0000     0.0000 c          1 THU       0.824500
      3 O2           1.9350     0.0100    -1.0610 o          1 THU      -0.673500
      4 N3           2.0460     0.0000     1.1450 ns         1 THU      -0.577500
      5 C4           1.4490    -0.2520     2.3240 c          1 THU       0.690500
      6 O4           2.0830    -0.1730     3.3540 o          1 THU      -0.606500
      7 C5          -0.0110    -0.6300     2.3630 c3         1 THU      -0.180400
      8 C6          -0.7540     0.1120     1.2500 c3         1 THU       0.099000
      9 C1'         -0.7220    -0.1200    -1.2690 c3         1 THU       0.340500
     10 C2'         -0.4150     1.0950    -2.1800 c3         1 THU      -0.146400
     11 C3'         -1.6800     1.1160    -3.0820 c3         1 THU       0.106100
     12 O3'         -1.5380     0.2080    -4.1770 oh         1 THU      -0.598800
     13 C4'         -2.7810     0.6370    -2.1110 c3         1 THU       0.152100
     14 O4'         -2.1400    -0.0700    -1.0430 os         1 THU      -0.413600
     15 C5'         -3.7490    -0.2940    -2.8430 c3         1 THU       0.137400
     16 O5'         -4.8240    -0.6470    -1.9700 oh         1 THU      -0.607800
     17 HN3          3.0280     0.1900     1.1210 hn         1 THU       0.359500
     18 H51         -0.0760    -1.6890     2.1430 hc         1 THU       0.092700
     19 H52         -0.4100    -0.2800     3.3070 hc         1 THU       0.092700
     20 H61         -1.7000    -0.3940     1.1020 h1         1 THU       0.075200
     21 H62         -0.7730     1.1610     1.5210 h1         1 THU       0.075200
     22 H1'         -0.4570    -1.0420    -1.7730 h2         1 THU       0.085700
     23 H2'1         0.4780     0.9230    -2.7690 hc         1 THU       0.082700
     24 H2'2        -0.3380     2.0060    -1.5980 hc         1 THU       0.082700
     25 H3'         -1.8870     2.1210    -3.4290 h1         1 THU       0.052700
     26 HO3'        -1.2610     0.6820    -4.9440 ho         1 THU       0.410000
     27 H4'         -3.3150     1.4910    -1.7140 h1         1 THU       0.074700
     28 H5'1        -3.2250    -1.1910    -3.1510 h1         1 THU       0.038700
     29 H5'2        -4.1450     0.2110    -3.7160 h1         1 THU       0.038700
     30 HO5'        -5.4770    -1.1260    -2.4520 ho         1 THU       0.403000
@<TRIPOS>BOND
     1     1     2 1
     2     1     8 1
     3     1     9 1
     4     2     3 2
     5     2     4 1
     6     4     5 1
     7     4    17 1
     8     5     6 2
     9     5     7 1
    10     7     8 1
    11     7    18 1
    12     7    19 1
    13     8    20 1
    14     8    21 1
    15     9    10 1
    16     9    14 1
    17     9    22 1
    18    10    11 1
    19    10    23 1
    20    10    24 1
    21    11    12 1
    22    11    13 1
    23    11    25 1
    24    12    26 1
    25    13    14 1
    26    13    15 1
    27    13    27 1
    28    15    16 1
    29    15    28 1
    30    15    29 1
    31    16    30 1
@<TRIPOS>SUBSTRUCTURE
     1 THU         1 TEMP              0 ****  ****    0 ROOT
