@<TRIPOS>MOLECULE
THW
   55    57     1     0     0
SMALL
bcc


@<TRIPOS>ATOM
      1 C10        -0.0980    0.2590    0.6370 ca        1 THW     -0.243000
      2 C12         1.1620    0.8230    0.6750 ca        1 THW     -0.091500
      3 C14         1.5400    1.6870    1.7090 ca        1 THW     -0.291000
      4 C13         0.6170    1.9660    2.7190 ca        1 THW     -0.091500
      5 C11        -0.6510    1.4130    2.6990 ca        1 THW     -0.243000
      6 C9         -1.0610    0.5410    1.6490 ca        1 THW      0.090200
      7 C8         -2.3700    0.0370    1.6020 ce        1 THW     -0.250100
      8 O9         -3.2430    0.4070    2.6270 oh        1 THW     -0.535100
      9 C2         -2.8500   -0.9790    0.7070 cd        1 THW     -0.051500
     10 S1         -1.9690   -2.4080    0.3490 ss        1 THW     -0.195200
     11 C5         -3.2660   -3.1270   -0.5810 cc        1 THW     -0.028000
     12 C5A        -3.1240   -4.3690   -1.0710 c2        1 THW     -0.216200
     13 C5B        -4.0750   -5.1540   -1.9020 c3        1 THW      0.223600
     14 O5G        -3.5720   -6.4340   -2.1500 os        1 THW     -0.580200
     15 PA         -4.6490   -7.3200   -3.0710 p5        1 THW      1.593800
     16 O1A        -4.6470   -6.6740   -4.4020 o         1 THW     -0.892500
     17 O2A        -5.8800   -7.4370   -2.2610 o         1 THW     -0.892500
     18 O3A        -3.8690   -8.7400   -3.1760 os        1 THW     -0.826800
     19 PB         -3.2160  -10.2370   -3.3190 p5        1 THW      1.596800
     20 O1B        -4.1260  -11.1060   -4.0970 o         1 THW     -0.890500
     21 O2B        -2.0140   -9.7800   -4.3430 oh        1 THW     -0.810400
     22 O3B        -2.5890  -10.7080   -2.0670 o         1 THW     -0.890500
     23 C4         -4.3320   -2.1500   -0.6290 cc        1 THW     -0.086400
     24 C4A        -5.6230   -2.3650   -1.3020 c3        1 THW     -0.069400
     25 N3         -4.0540   -0.9830    0.0690 na        1 THW      0.030700
     26 C35        -5.0660    0.0430    0.2600 c3        1 THW      0.070600
     27 C5'        -5.1960    1.0500   -0.8380 ca        1 THW     -0.385900
     28 C6'        -6.2970    1.0140   -1.7010 ca        1 THW      0.465200
     29 N1'        -6.5130    1.9080   -2.6890 nb        1 THW     -0.777000
     30 C2'        -5.5520    2.8720   -2.8400 ca        1 THW      0.668300
     31 C2A        -5.7420    3.8480   -3.9800 c3        1 THW     -0.126400
     32 N3'        -4.4400    3.0270   -2.0760 nb        1 THW     -0.807000
     33 C4'        -4.2530    2.1250   -1.0390 ca        1 THW      0.715200
     34 N4'        -3.2140    2.3260   -0.1710 nh        1 THW     -0.939500
     35 H10        -0.3780   -0.4360   -0.1700 ha        1 THW      0.124500
     36 H12         1.8860    0.5860   -0.1190 ha        1 THW      0.082500
     37 H14         2.5420    2.1280    1.7290 ha        1 THW      0.084000
     38 H13         0.9040    2.6360    3.5430 ha        1 THW      0.082500
     39 H11        -1.3720    1.6410    3.4950 ha        1 THW      0.124500
     40 H9         -3.1430   -0.2660    3.3160 ho        1 THW      0.354000
     41 H5A1       -2.1930   -4.9210   -0.8490 ha        1 THW      0.132000
     42 H5A2       -2.1860   -8.9570   -4.7800 ho        1 THW      0.424000
     43 H5B1       -5.0680   -5.2630   -1.3720 h1        1 THW      0.024700
     44 H5B2       -4.2480   -4.6450   -2.8960 h1        1 THW      0.024700
     45 H4A1       -5.8690   -1.5180   -1.9960 hc        1 THW      0.025033
     46 H4A2       -6.4630   -2.4570   -0.5640 hc        1 THW      0.025033
     47 H4A3       -5.5890   -3.3030   -1.9070 hc        1 THW      0.025033
     48 H351       -4.8480    0.5820    1.2300 h1        1 THW      0.078700
     49 H352       -6.0610   -0.4810    0.3780 h1        1 THW      0.078700
     50 H6'        -7.0600    0.2190   -1.6040 h4        1 THW      0.023100
     51 H2A1       -5.0400    4.7120   -3.8980 hc        1 THW      0.043367
     52 H2A2       -5.5480    3.3160   -4.9440 hc        1 THW      0.043367
     53 H2A3       -6.7900    4.2330   -3.9840 hc        1 THW      0.043367
     54 H4'1       -2.9650    1.5810    0.4670 hn        1 THW      0.457300
     55 H4'2       -2.4890    2.9500   -0.4320 hn        1 THW      0.457300
@<TRIPOS>BOND
     1    1    2 ar  
     2    1    6 ar  
     3    1   35 1   
     4    2    3 ar  
     5    2   36 1   
     6    3    4 ar  
     7    3   37 1   
     8    4    5 ar  
     9    4   38 1   
    10    5    6 ar  
    11    5   39 1   
    12    6    7 1   
    13    7    8 1   
    14    7    9 2   
    15    8   40 1   
    16    9   10 1   
    17    9   25 1   
    18   10   11 1   
    19   11   12 2   
    20   11   23 1   
    21   12   13 1   
    22   12   41 1   
    23   13   14 1   
    24   13   43 1   
    25   13   44 1   
    26   14   15 1   
    27   15   16 1   
    28   15   17 1   
    29   15   18 1   
    30   18   19 1   
    31   19   20 1   
    32   19   21 1   
    33   19   22 1   
    34   21   42 1   
    35   23   24 1   
    36   23   25 2   
    37   24   45 1   
    38   24   46 1   
    39   24   47 1   
    40   25   26 1   
    41   26   27 1   
    42   26   48 1   
    43   26   49 1   
    44   27   28 ar  
    45   27   33 ar  
    46   28   29 ar  
    47   28   50 1   
    48   29   30 ar  
    49   30   31 1   
    50   30   32 ar  
    51   31   51 1   
    52   31   52 1   
    53   31   53 1   
    54   32   33 ar  
    55   33   34 1   
    56   34   54 1   
    57   34   55 1   
@<TRIPOS>SUBSTRUCTURE
     1 THW         1 TEMP              0 ****  ****    0 ROOT
