@<TRIPOS>MOLECULE
molecule
   53    53     1     0     0
SMALL
bcc


@<TRIPOS>ATOM
      1 SG           0.0000     0.0000     0.0000 sh         1 TI1      -0.403900
      2 CA1          1.8130     0.0000     0.0000 c3         1 TI1      -0.018600
      3 CB1          2.3240     0.0000     1.4420 c3         1 TI1      -0.057400
      4 CG1          1.8140     1.2490     2.1640 c3         1 TI1      -0.092400
      5 CD1          2.3240     1.2490     3.6050 c3         1 TI1      -0.078400
      6 CE1          1.8140     2.4980     4.3280 c3         1 TI1      -0.084400
      7 CF1          2.3250     2.4980     5.7700 c3         1 TI1      -0.092100
      8 C1           2.3160    -1.2290    -0.7110 c          1 TI1       0.685100
      9 O1           2.5180    -2.2500    -0.0880 o          1 TI1      -0.588100
     10 N2           2.5400    -1.1960    -2.0390 ns         1 TI1      -0.573900
     11 CA2          3.0280    -2.3910    -2.7300 c3         1 TI1       0.045700
     12 CB2          2.5180    -2.3910    -4.1720 c3         1 TI1      -0.047100
     13 CG2          1.0120    -2.3920    -4.1720 ca         1 TI1      -0.072300
     14 CD3          0.3200    -1.1950    -4.1710 ca         1 TI1      -0.120500
     15 CD4          0.3210    -3.5890    -4.1790 ca         1 TI1      -0.120500
     16 CE3         -1.0620    -1.1950    -4.1720 ca         1 TI1      -0.126000
     17 CE4         -1.0620    -3.5880    -4.1740 ca         1 TI1      -0.126000
     18 CZ2         -1.7530    -2.3920    -4.1720 ca         1 TI1      -0.134000
     19 C2           4.5350    -2.3900    -2.7300 c          1 TI1       0.635100
     20 O2           5.1410    -3.4410    -2.7310 o          1 TI1      -0.633100
     21 N3           5.2090    -1.2240    -2.7300 ns         1 TI1      -0.534900
     22 CA3          6.6740    -1.2240    -2.7310 c3         1 TI1      -0.002300
     23 CB3          7.1830    -1.2240    -4.1730 c3         1 TI1      -0.086100
     24 C3           7.1760     0.0070    -2.0200 c          1 TI1       0.889600
     25 O3           6.3900     0.8010    -1.5610 o          1 TI1      -0.844800
     26 OXT          8.4950     0.2190    -1.8970 o          1 TI1      -0.844800
     27 HS          -0.4430     1.1300    -0.5380 hs         1 TI1       0.200800
     28 HA1          2.1740     0.8850    -0.5100 h1         1 TI1       0.075700
     29 HB11         3.4070     0.0000     1.4410 hc         1 TI1       0.075700
     30 HB12         1.9630    -0.8850     1.9520 hc         1 TI1       0.075700
     31 HG11         0.7310     1.2490     2.1640 hc         1 TI1       0.044200
     32 HG12         2.1750     2.1340     1.6530 hc         1 TI1       0.044200
     33 HD11         1.9630     0.3640     4.1160 hc         1 TI1       0.046200
     34 HD12         3.4070     1.2490     3.6050 hc         1 TI1       0.046200
     35 HE11         2.1750     3.3820     3.8170 hc         1 TI1       0.037200
     36 HE12         0.7310     2.4970     4.3280 hc         1 TI1       0.037200
     37 HF11         1.9600     1.6160     6.2820 hc         1 TI1       0.030033
     38 HF12         3.4080     2.4940     5.7700 hc         1 TI1       0.030033
     39 HF13         1.9670     3.3850     6.2790 hc         1 TI1       0.030033
     40 HN2          2.3900    -0.3490    -2.5500 hn         1 TI1       0.310500
     41 HA2          2.6670    -3.2760    -2.2200 h1         1 TI1       0.109700
     42 HB21         2.8790    -1.5060    -4.6830 hc         1 TI1       0.063700
     43 HB22         2.8800    -3.2750    -4.6830 hc         1 TI1       0.063700
     44 HD3          0.8620    -0.2560    -4.1710 ha         1 TI1       0.128500
     45 HD4          0.8620    -4.5270    -4.1800 ha         1 TI1       0.128500
     46 HE3         -1.6040    -0.2570    -4.1710 ha         1 TI1       0.122500
     47 HE4         -1.6030    -4.5260    -4.1760 ha         1 TI1       0.122500
     48 HZ2         -2.8360    -2.3930    -4.1700 ha         1 TI1       0.121000
     49 HN3          4.7090    -0.3580    -2.7530 hn         1 TI1       0.318500
     50 HA3          7.0350    -2.1080    -2.2210 h1         1 TI1       0.080700
     51 HB31         7.7860    -2.1070    -4.3430 hc         1 TI1       0.027033
     52 HB32         6.3410    -1.2250    -4.8540 hc         1 TI1       0.027033
     53 HB33         7.7840    -0.3380    -4.3440 hc         1 TI1       0.027033
@<TRIPOS>BOND
     1     1     2 1
     2     1    27 1
     3     2     3 1
     4     2     8 1
     5     2    28 1
     6     3     4 1
     7     3    29 1
     8     3    30 1
     9     4     5 1
    10     4    31 1
    11     4    32 1
    12     5     6 1
    13     5    33 1
    14     5    34 1
    15     6     7 1
    16     6    35 1
    17     6    36 1
    18     7    37 1
    19     7    38 1
    20     7    39 1
    21     8     9 2
    22     8    10 1
    23    10    11 1
    24    10    40 1
    25    11    12 1
    26    11    19 1
    27    11    41 1
    28    12    13 1
    29    12    42 1
    30    12    43 1
    31    13    14 ar
    32    13    15 ar
    33    14    16 ar
    34    14    44 1
    35    15    17 ar
    36    15    45 1
    37    16    18 ar
    38    16    46 1
    39    17    18 ar
    40    17    47 1
    41    18    48 1
    42    19    20 2
    43    19    21 1
    44    21    22 1
    45    21    49 1
    46    22    23 1
    47    22    24 1
    48    22    50 1
    49    23    51 1
    50    23    52 1
    51    23    53 1
    52    24    25 1
    53    24    26 1
@<TRIPOS>SUBSTRUCTURE
     1 TI1         1 TEMP              0 ****  ****    0 ROOT
