@<TRIPOS>MOLECULE
molecule
   62    64     1     0     0
SMALL
bcc


@<TRIPOS>ATOM
      1 SG           0.0000     0.0000     0.0000 sh         1 TI2      -0.392900
      2 CA1          1.8130     0.0000     0.0000 c3         1 TI2      -0.017600
      3 CB1          2.3240     0.0000     1.4420 c3         1 TI2      -0.011100
      4 CG1          1.8220     1.2300     2.1530 ca         1 TI2      -0.090300
      5 CD1          0.6140     1.1950     2.8240 ca         1 TI2      -0.111000
      6 CD2          2.5720     2.3900     2.1380 ca         1 TI2      -0.111000
      7 CE1          0.1540     2.3230     3.4770 ca         1 TI2      -0.138000
      8 CE2          2.1090     3.5200     2.7860 ca         1 TI2      -0.138000
      9 CZ1          0.9010     3.4850     3.4580 ca         1 TI2      -0.134000
     10 C1           2.3160    -1.2290    -0.7120 c          1 TI2       0.669100
     11 O1           2.5190    -2.2500    -0.0890 o          1 TI2      -0.602100
     12 N2           2.5400    -1.1960    -2.0400 ns         1 TI2      -0.550900
     13 CA2          3.0270    -2.3910    -2.7310 c3         1 TI2       0.041700
     14 CB2          1.8370    -3.2230    -3.2120 c3         1 TI2      -0.047100
     15 CG2          1.0010    -3.6340    -2.0290 ca         1 TI2      -0.068300
     16 CD3         -0.0340    -2.8250    -1.6000 ca         1 TI2      -0.111500
     17 CD4          1.2660    -4.8230    -1.3740 ca         1 TI2      -0.111500
     18 CE3         -0.8020    -3.2020    -0.5140 ca         1 TI2      -0.124000
     19 CE4          0.5010    -5.1980    -0.2870 ca         1 TI2      -0.124000
     20 CZ2         -0.5340    -4.3880     0.1430 ca         1 TI2      -0.140000
     21 C2           3.8640    -1.9800    -3.9160 c          1 TI2       0.652100
     22 O2           4.0350    -0.8050    -4.1580 o          1 TI2      -0.630100
     23 N3           4.4210    -2.9200    -4.7050 ns         1 TI2      -0.529900
     24 CA3          5.2350    -2.5200    -5.8560 c3         1 TI2       0.013700
     25 CB3          6.3030    -3.5830    -6.1190 c3         1 TI2      -0.042100
     26 CG3          7.1840    -3.7200    -4.9050 ca         1 TI2      -0.065300
     27 CD5          6.8560    -4.6260    -3.9140 ca         1 TI2      -0.117500
     28 CE5          7.6630    -4.7540    -2.7990 ca         1 TI2      -0.152000
     29 CD6          8.3230    -2.9450    -4.7870 ca         1 TI2      -0.117500
     30 CE6          9.1290    -3.0640    -3.6730 ca         1 TI2      -0.152000
     31 CZ3          8.8030    -3.9720    -2.6760 ca         1 TI2       0.077100
     32 OH           9.5970    -4.0960    -1.5810 oh         1 TI2      -0.527100
     33 C3           4.3540    -2.3830    -7.0710 c          1 TI2       0.882600
     34 O3           4.6390    -1.5920    -7.9380 o          1 TI2      -0.835300
     35 OXT          3.2500    -3.1390    -7.1890 o          1 TI2      -0.835300
     36 HS          -0.4430     1.0480    -0.6840 hs         1 TI2       0.208800
     37 HA1          2.1740     0.8850    -0.5100 h1         1 TI2       0.073700
     38 HB11         1.9630    -0.8850     1.9520 hc         1 TI2       0.074700
     39 HB12         3.4070     0.0000     1.4410 hc         1 TI2       0.074700
     40 HD1          0.0290     0.2840     2.8390 ha         1 TI2       0.138500
     41 HD2          3.5180     2.4170     1.6120 ha         1 TI2       0.138500
     42 HE1         -0.7920     2.2960     4.0030 ha         1 TI2       0.124000
     43 HE2          2.6960     4.4310     2.7730 ha         1 TI2       0.124000
     44 HZ1          0.5390     4.3700     3.9680 ha         1 TI2       0.121000
     45 HN2          2.3960    -0.3480    -2.5510 hn         1 TI2       0.333500
     46 HA2          3.6290    -2.9810    -2.0500 h1         1 TI2       0.088700
     47 HB21         1.2350    -2.6320    -3.8920 hc         1 TI2       0.070700
     48 HB22         2.1970    -4.1070    -3.7240 hc         1 TI2       0.070700
     49 HD3         -0.2440    -1.8960    -2.1150 ha         1 TI2       0.128500
     50 HD4          2.0760    -5.4580    -1.7100 ha         1 TI2       0.128500
     51 HE3         -1.6140    -2.5670    -0.1780 ha         1 TI2       0.118500
     52 HE4          0.7090    -6.1280     0.2270 ha         1 TI2       0.118500
     53 HZ2         -1.1340    -4.6830     0.9950 ha         1 TI2       0.113000
     54 HN3          4.2320    -3.8880    -4.5390 hn         1 TI2       0.307500
     55 HA3          5.7140    -1.5710    -5.6480 h1         1 TI2       0.078700
     56 HB31         5.8240    -4.5320    -6.3270 hc         1 TI2       0.062200
     57 HB32         6.9050    -3.2880    -6.9710 hc         1 TI2       0.062200
     58 HD5          5.9950    -5.2720    -4.0350 ha         1 TI2       0.134500
     59 HE5          7.4290    -5.4930    -2.0430 ha         1 TI2       0.128000
     60 HD6          8.5910    -2.2540    -5.5770 ha         1 TI2       0.134500
     61 HE6         10.0370    -2.4780    -3.5960 ha         1 TI2       0.128000
     62 HO          10.2770    -4.7250    -1.7550 ho         1 TI2       0.405000
@<TRIPOS>BOND
     1     1     2 1
     2     1    36 1
     3     2     3 1
     4     2    10 1
     5     2    37 1
     6     3     4 1
     7     3    38 1
     8     3    39 1
     9     4     5 ar
    10     4     6 ar
    11     5     7 ar
    12     5    40 1
    13     6     8 ar
    14     6    41 1
    15     7     9 ar
    16     7    42 1
    17     8     9 ar
    18     8    43 1
    19     9    44 1
    20    10    11 2
    21    10    12 1
    22    12    13 1
    23    12    45 1
    24    13    14 1
    25    13    21 1
    26    13    46 1
    27    14    15 1
    28    14    47 1
    29    14    48 1
    30    15    16 ar
    31    15    17 ar
    32    16    18 ar
    33    16    49 1
    34    17    19 ar
    35    17    50 1
    36    18    20 ar
    37    18    51 1
    38    19    20 ar
    39    19    52 1
    40    20    53 1
    41    21    22 2
    42    21    23 1
    43    23    24 1
    44    23    54 1
    45    24    25 1
    46    24    33 1
    47    24    55 1
    48    25    26 1
    49    25    56 1
    50    25    57 1
    51    26    27 ar
    52    26    29 ar
    53    27    28 ar
    54    27    58 1
    55    28    31 ar
    56    28    59 1
    57    29    30 ar
    58    29    60 1
    59    30    31 ar
    60    30    61 1
    61    31    32 1
    62    32    62 1
    63    33    34 1
    64    33    35 1
@<TRIPOS>SUBSTRUCTURE
     1 TI2         1 TEMP              0 ****  ****    0 ROOT
