@<TRIPOS>MOLECULE
TI3
   52    54     1     0     0
SMALL
bcc


@<TRIPOS>ATOM
      1 SG           0.0000     0.0000     0.0000 sh         1 TI3      -0.389900
      2 CA1          1.8130     0.0000     0.0000 c3         1 TI3       0.015400
      3 CB1          2.3240     0.0000     1.4410 c3         1 TI3       0.061900
      4 CG1          1.8210     1.2300     2.1530 ca         1 TI3      -0.095300
      5 CD1          0.6140     1.1950     2.8250 ca         1 TI3      -0.084500
      6 CD2          2.5710     2.3910     2.1380 ca         1 TI3      -0.084500
      7 CE1          0.1540     2.3230     3.4770 ca         1 TI3      -0.110500
      8 CE2          2.1070     3.5200     2.7870 ca         1 TI3      -0.110500
      9 CZ1          0.8990     3.4850     3.4580 ca         1 TI3      -0.109000
     10 C1           2.3160    -1.2290    -0.7120 c          1 TI3       0.568100
     11 O1           2.5200    -2.2490    -0.0890 o          1 TI3      -0.658100
     12 N2           2.5400    -1.1960    -2.0410 ns         1 TI3      -0.151900
     13 CA2          3.0300    -2.3890    -2.7320 c3         1 TI3      -0.051000
     14 C2           3.1950    -2.0890    -4.1980 c          1 TI3       0.590100
     15 O2           2.8380    -1.0190    -4.6430 o          1 TI3      -0.608100
     16 N3           3.7430    -3.0090    -5.0170 n          1 TI3      -0.120800
     17 CD3          4.2790    -4.3150    -4.6030 c3         1 TI3       0.077000
     18 CA3          3.9020    -2.8760    -6.4770 c3         1 TI3      -0.079300
     19 CB3          3.9720    -4.3310    -7.0050 c3         1 TI3      -0.018400
     20 CG3          4.7740    -5.0330    -5.8770 c3         1 TI3      -0.038400
     21 CG4          3.1980    -5.1310    -3.9420 ca         1 TI3      -0.114300
     22 CD5          3.5280    -6.0590    -2.9720 ca         1 TI3      -0.098500
     23 CD4          1.8770    -4.9490    -4.3020 ca         1 TI3      -0.098500
     24 CE5          2.5370    -6.8080    -2.3650 ca         1 TI3      -0.106000
     25 CE4          0.8870    -5.7010    -3.6980 ca         1 TI3      -0.106000
     26 CZ3          1.2170    -6.6290    -2.7290 ca         1 TI3      -0.112000
     27 C3           2.7180    -2.1600    -7.0710 c          1 TI3       0.984600
     28 O3           1.6390    -2.2260    -6.5310 o          1 TI3      -0.881300
     29 OXT          2.8610    -1.4470    -8.1990 o          1 TI3      -0.881300
     30 HS          -0.4430     0.8090    -0.9540 hs         1 TI3       0.192800
     31 HA1          2.1730     0.8850    -0.5100 h1         1 TI3       0.043700
     32 HB11         3.4070     0.0010     1.4400 hc         1 TI3       0.040200
     33 HB12         1.9640    -0.8850     1.9520 hc         1 TI3       0.040200
     34 HD1          0.0290     0.2840     2.8400 ha         1 TI3       0.113500
     35 HD2          3.5170     2.4190     1.6120 ha         1 TI3       0.113500
     36 HE1         -0.7930     2.2950     4.0030 ha         1 TI3       0.098000
     37 HE2          2.6930     4.4310     2.7750 ha         1 TI3       0.098000
     38 HZ1          0.5360     4.3690     3.9680 ha         1 TI3       0.095000
     39 HN2          2.3940    -0.3470    -2.5510 hn         1 TI3       0.199500
     40 HA21         2.3180    -3.1960    -2.6070 h1         1 TI3       0.044700
     41 HA22         3.9850    -2.6830    -2.3130 h1         1 TI3       0.044700
     42 HD3          5.1070    -4.1700    -3.9200 h1         1 TI3       0.014700
     43 HA3          4.8210    -2.3500    -6.7070 h1         1 TI3       0.031700
     44 HB31         4.5090    -4.3750    -7.9450 hc         1 TI3       0.028700
     45 HB32         2.9800    -4.7570    -7.0960 hc         1 TI3       0.028700
     46 HG31         5.8380    -4.8790    -6.0130 hc         1 TI3       0.013700
     47 HG32         4.5340    -6.0880    -5.8390 hc         1 TI3       0.013700
     48 HD5          4.5640    -6.1990    -2.6870 ha         1 TI3       0.134000
     49 HD4          1.6180    -4.2210    -5.0620 ha         1 TI3       0.134000
     50 HE5          2.7960    -7.5350    -1.6050 ha         1 TI3       0.098000
     51 HE4         -0.1490    -5.5590    -3.9820 ha         1 TI3       0.098000
     52 HZ3          0.4400    -7.2170    -2.2550 ha         1 TI3       0.092000
@<TRIPOS>BOND
     1     1     2 1   
     2     1    30 1   
     3     2     3 1   
     4     2    10 1   
     5     2    31 1   
     6     3     4 1   
     7     3    32 1   
     8     3    33 1   
     9     4     5 ar  
    10     4     6 ar  
    11     5     7 ar  
    12     5    34 1   
    13     6     8 ar  
    14     6    35 1   
    15     7     9 ar  
    16     7    36 1   
    17     8     9 ar  
    18     8    37 1   
    19     9    38 1   
    20    10    11 2   
    21    10    12 1   
    22    12    13 1   
    23    12    39 1   
    24    13    14 1   
    25    13    40 1   
    26    13    41 1   
    27    14    15 2   
    28    14    16 1   
    29    16    17 1   
    30    16    18 1   
    31    17    20 1   
    32    17    21 1   
    33    17    42 1   
    34    18    19 1   
    35    18    27 1   
    36    18    43 1   
    37    19    20 1   
    38    19    44 1   
    39    19    45 1   
    40    20    46 1   
    41    20    47 1   
    42    21    22 ar  
    43    21    23 ar  
    44    22    24 ar  
    45    22    48 1   
    46    23    25 ar  
    47    23    49 1   
    48    24    26 ar  
    49    24    50 1   
    50    25    26 ar  
    51    25    51 1   
    52    26    52 1   
    53    27    28 1   
    54    27    29 1   
@<TRIPOS>SUBSTRUCTURE
     1 TI3         1 TEMP              0 ****  ****    0 ROOT
