@<TRIPOS>MOLECULE
TI4
   34    37     1     0     0
SMALL
bcc


@<TRIPOS>ATOM
      1 C1           0.0000     0.0000     0.0000 ca         1 TI4      -0.222300
      2 C2           1.3820     0.0000     0.0000 ca         1 TI4       0.398200
      3 N3           2.0560     0.0000     1.1340 nb         1 TI4      -0.584000
      4 C4           1.4470     0.0000     2.3040 ca         1 TI4       0.411200
      5 C5           0.0680     0.0000     2.3810 ca         1 TI4      -0.204600
      6 C6          -0.6750     0.0000     1.2110 ca         1 TI4      -0.082000
      7 C7          -0.6210    -0.0010     3.7220 c3         1 TI4       0.204800
      8 N8           0.1940    -0.7440     4.6920 n3         1 TI4      -0.531600
      9 C9          -0.4220    -0.7250     6.0250 c3         1 TI4       0.153800
     10 C10         -1.7870    -1.4160     5.9630 c3         1 TI4      -0.075700
     11 C11         -2.6790    -0.6750     4.9620 c3         1 TI4      -0.020400
     12 C12         -1.9920    -0.6700     3.5930 c3         1 TI4      -0.080700
     13 C13         -1.8010    -2.1150     3.1200 c3         1 TI4      -0.020400
     14 C14         -0.9100    -2.8540     4.1230 c3         1 TI4      -0.075700
     15 C15         -1.5960    -2.8620     5.4940 c3         1 TI4      -0.015400
     16 C16          0.4300    -2.1210     4.2390 c3         1 TI4       0.153800
     17 H1          -0.5490     0.0000    -0.9340 ha         1 TI4       0.112000
     18 H2           1.9180    -0.0000    -0.9420 h4         1 TI4      -0.021900
     19 H4           2.0350     0.0000     3.2140 h4         1 TI4       0.003100
     20 H6          -1.7580     0.0000     1.2420 ha         1 TI4       0.119000
     21 H7          -0.7470     1.0200     4.0640 h1         1 TI4       0.045700
     22 H92         -0.5500     0.3010     6.3490 h1         1 TI4       0.027950
     23 H93          0.2170    -1.2480     6.7260 h1         1 TI4       0.027950
     24 H10         -2.2480    -1.4060     6.9440 hc         1 TI4       0.032200
     25 H113        -3.6350    -1.1780     4.8860 hc         1 TI4       0.021200
     26 H112        -2.8300     0.3440     5.2960 hc         1 TI4       0.021200
     27 H12         -2.6000    -0.1270     2.8790 hc         1 TI4       0.036700
     28 H133        -2.7650    -2.6070     3.0590 hc         1 TI4       0.021200
     29 H132        -1.3300    -2.1180     2.1450 hc         1 TI4       0.021200
     30 H14         -0.7450    -3.8710     3.7890 hc         1 TI4       0.032200
     31 H152        -2.5610    -3.3480     5.4140 hc         1 TI4       0.017700
     32 H153        -0.9790    -3.3960     6.2060 hc         1 TI4       0.017700
     33 H163         1.0620    -2.6340     4.9530 h1         1 TI4       0.027950
     34 H162         0.9170    -2.1050     3.2710 h1         1 TI4       0.027950
@<TRIPOS>BOND
     1     1     2 ar  
     2     1     6 ar  
     3     1    17 1   
     4     2     3 ar  
     5     2    18 1   
     6     3     4 ar  
     7     4     5 ar  
     8     4    19 1   
     9     5     6 ar  
    10     5     7 1   
    11     6    20 1   
    12     7     8 1   
    13     7    12 1   
    14     7    21 1   
    15     8     9 1   
    16     8    16 1   
    17     9    10 1   
    18     9    22 1   
    19     9    23 1   
    20    10    11 1   
    21    10    15 1   
    22    10    24 1   
    23    11    12 1   
    24    11    25 1   
    25    11    26 1   
    26    12    13 1   
    27    12    27 1   
    28    13    14 1   
    29    13    28 1   
    30    13    29 1   
    31    14    15 1   
    32    14    16 1   
    33    14    30 1   
    34    15    31 1   
    35    15    32 1   
    36    16    33 1   
    37    16    34 1   
@<TRIPOS>SUBSTRUCTURE
     1 TI4         1 TEMP              0 ****  ****    0 ROOT
