@<TRIPOS>MOLECULE
molecule
   34    37     1     0     0
SMALL
bcc


@<TRIPOS>ATOM
      1 C1           0.0000     0.0000     0.0000 ca         1 TI4      -0.258300
      2 C2           1.3820     0.0000     0.0000 ca         1 TI4       0.414200
      3 N3           2.0560     0.0000     1.1340 nb         1 TI4      -0.694000
      4 C4           1.4470     0.0000     2.3040 ca         1 TI4       0.434200
      5 C5           0.0680     0.0000     2.3810 ca         1 TI4      -0.204600
      6 C6          -0.6750     0.0000     1.2110 ca         1 TI4      -0.097000
      7 C7          -0.6210    -0.0010     3.7220 c3         1 TI4       0.225800
      8 N8           0.1940    -0.7440     4.6920 n3         1 TI4      -0.711600
      9 C9          -0.4220    -0.7250     6.0250 c3         1 TI4       0.164300
     10 C10         -1.7870    -1.4160     5.9630 c3         1 TI4      -0.105200
     11 C11         -2.6790    -0.6750     4.9620 c3         1 TI4      -0.069400
     12 C12         -1.9920    -0.6700     3.5930 c3         1 TI4      -0.100700
     13 C13         -1.8010    -2.1150     3.1200 c3         1 TI4      -0.069400
     14 C14         -0.9100    -2.8540     4.1230 c3         1 TI4      -0.105200
     15 C15         -1.5960    -2.8620     5.4940 c3         1 TI4      -0.068400
     16 C16          0.4300    -2.1210     4.2390 c3         1 TI4       0.164300
     17 H1          -0.5490     0.0000    -0.9340 ha         1 TI4       0.136000
     18 H2           1.9180    -0.0000    -0.9420 h4         1 TI4       0.021100
     19 H4           2.0350     0.0000     3.2140 h4         1 TI4       0.044100
     20 H6          -1.7580     0.0000     1.2420 ha         1 TI4       0.140000
     21 H7          -0.7470     1.0200     4.0640 h1         1 TI4       0.075700
     22 H92         -0.5500     0.3010     6.3490 h1         1 TI4       0.057450
     23 H93          0.2170    -1.2480     6.7260 h1         1 TI4       0.057450
     24 H10         -2.2480    -1.4060     6.9440 hc         1 TI4       0.055200
     25 H113        -3.6350    -1.1780     4.8860 hc         1 TI4       0.045200
     26 H112        -2.8300     0.3440     5.2960 hc         1 TI4       0.045200
     27 H12         -2.6000    -0.1270     2.8790 hc         1 TI4       0.053700
     28 H133        -2.7650    -2.6070     3.0590 hc         1 TI4       0.045200
     29 H132        -1.3300    -2.1180     2.1450 hc         1 TI4       0.045200
     30 H14         -0.7450    -3.8710     3.7890 hc         1 TI4       0.055200
     31 H152        -2.5610    -3.3480     5.4140 hc         1 TI4       0.043200
     32 H153        -0.9790    -3.3960     6.2060 hc         1 TI4       0.043200
     33 H163         1.0620    -2.6340     4.9530 h1         1 TI4       0.057450
     34 H162         0.9170    -2.1050     3.2710 h1         1 TI4       0.057450
@<TRIPOS>BOND
     1     3     4 ar
     2     3     2 ar
     3     4     5 ar
     4    11    12 1
     5    11    10 1
     6    12     7 1
     7    12    13 1
     8     2     1 ar
     9     5     7 1
    10     5     6 ar
    11     7     8 1
    12     1     6 ar
    13    13    14 1
    14    10     9 1
    15    10    15 1
    16     9     8 1
    17     8    16 1
    18    15    14 1
    19    14    16 1
    20     1    17 1
    21     2    18 1
    22     4    19 1
    23     6    20 1
    24     7    21 1
    25     9    22 1
    26     9    23 1
    27    10    24 1
    28    11    25 1
    29    11    26 1
    30    12    27 1
    31    13    28 1
    32    13    29 1
    33    14    30 1
    34    15    31 1
    35    15    32 1
    36    16    33 1
    37    16    34 1
@<TRIPOS>SUBSTRUCTURE
     1 TI4         1 TEMP              0 ****  ****    0 ROOT
