@<TRIPOS>MOLECULE
molecule
   27    28     1     0     0
SMALL
bcc


@<TRIPOS>ATOM
      1 C            0.0000     0.0000     0.0000 c          1 TI7       0.882200
      2 O            1.3470     0.0000     0.0000 o          1 TI7      -0.836800
      3 C1          -0.7400     0.0000     1.2790 ca         1 TI7      -0.107600
      4 C10         -4.2740    -2.0650     1.0860 c3         1 TI7      -0.050800
      5 C11         -2.1150    -0.0010     3.6910 ca         1 TI7      -0.138000
      6 C12         -0.7340    -0.0020     3.6860 ca         1 TI7      -0.168000
      7 C13         -0.0430    -0.0010     2.4900 ca         1 TI7      -0.088000
      8 C2          -2.1340     0.0060     1.2810 ca         1 TI7      -0.088000
      9 C3          -2.8220     0.0050     2.4900 cp         1 TI7      -0.090000
     10 C4          -4.3060     0.0110     2.5000 cp         1 TI7      -0.006000
     11 C5          -4.9960     1.0120     3.1810 ca         1 TI7      -0.120000
     12 C6          -6.3760     1.0130     3.1870 ca         1 TI7      -0.145000
     13 C7          -7.0740     0.0230     2.5190 ca         1 TI7      -0.145000
     14 C8          -6.3940    -0.9730     1.8420 ca         1 TI7      -0.136000
     15 C9          -5.0130    -0.9800     1.8240 ca         1 TI7      -0.067300
     16 O1          -0.6070     0.0060    -1.0530 o          1 TI7      -0.836800
     17 H5          -3.9700    -1.6980     0.1130 hc         1 TI7       0.049033
     18 H6          -4.9230    -2.9240     0.9600 hc         1 TI7       0.049033
     19 H7          -3.3980    -2.3560     1.6530 hc         1 TI7       0.049033
     20 H8          -2.6510    -0.0010     4.6330 ha         1 TI7       0.106000
     21 H9          -0.1900    -0.0040     4.6230 ha         1 TI7       0.106000
     22 H10          1.0400    -0.0020     2.4910 ha         1 TI7       0.154000
     23 H           -2.6790     0.0110     0.3450 ha         1 TI7       0.151000
     24 H1          -4.4510     1.7880     3.7040 ha         1 TI7       0.132000
     25 H2          -6.9130     1.7900     3.7160 ha         1 TI7       0.114000
     26 H3          -8.1570     0.0260     2.5290 ha         1 TI7       0.112000
     27 H4          -6.9460    -1.7460     1.3210 ha         1 TI7       0.120000
@<TRIPOS>BOND
     1    13    14 ar
     2    13    12 ar
     3    14    15 ar
     4     4    15 1
     5    12    11 ar
     6    15    10 ar
     7    11    10 ar
     8    10     9 1
     9    16     1 1
    10     8     9 ar
    11     8     3 ar
    12     9     5 ar
    13     1     3 1
    14     1     2 1
    15     3     7 ar
    16     5     6 ar
    17     7     6 ar
    18     4    17 1
    19     4    18 1
    20     4    19 1
    21     5    20 1
    22     6    21 1
    23     7    22 1
    24     8    23 1
    25    11    24 1
    26    12    25 1
    27    13    26 1
    28    14    27 1
@<TRIPOS>SUBSTRUCTURE
     1 TI7         1 TEMP              0 ****  ****    0 ROOT
