@<TRIPOS>MOLECULE
molecule
   59    62     1     0     0
SMALL
bcc


@<TRIPOS>ATOM
      1 C            0.0000     0.0000     0.0000 ca         1 TI8       0.748200
      2 C1           1.4040     0.0000     0.0000 ca         1 TI8      -0.118200
      3 C2           2.0680     0.0000     1.2370 ca         1 TI8       0.441800
      4 C3           4.5080    -0.0020     1.9240 c3         1 TI8       0.265800
      5 C4           4.6680     1.3990     2.5670 c3         1 TI8       0.093100
      6 C5           5.3460     1.0610     3.9170 c3         1 TI8       0.086100
      7 C6           5.0160    -0.4270     4.1430 c3         1 TI8       0.125100
      8 C7           4.2570    -0.5970     5.4610 c3         1 TI8      -0.079400
      9 C8           4.0430    -2.0880     5.7380 c3         1 TI8      -0.083400
     10 C9           3.2850    -2.2570     7.0550 c3         1 TI8       0.149400
     11 N           -0.7090     0.0010    -1.1900 nv         1 TI8      -1.071500
     12 O            5.5100     2.2330     1.7690 oh         1 TI8      -0.580800
     13 O2           3.0830    -3.6710     7.3180 os         1 TI8      -0.424900
     14 C21          0.0340     0.0020     2.3080 ca         1 TI8       0.679900
     15 C11          2.1840    -5.4070     8.7790 ce         1 TI8      -0.218200
     16 N1           3.4140    -0.0020     0.9500 na         1 TI8      -0.283000
     17 C16          6.8220     1.1920    -3.2870 ca         1 TI8      -0.100000
     18 O3           2.0330    -3.1210     9.1950 o          1 TI8      -0.559000
     19 C14          4.7460    -0.0050    -2.5620 c3         1 TI8       0.306100
     20 C15          6.1690    -0.0060    -3.0580 ca         1 TI8      -0.123300
     21 C13          3.5420    -0.0020    -0.4120 cc         1 TI8       0.689700
     22 O1           6.7580     1.2560     3.8300 oh         1 TI8      -0.578800
     23 C20          6.8200    -1.2040    -3.2850 ca         1 TI8      -0.100000
     24 N3           2.3560    -0.0020    -0.9680 nd         1 TI8      -0.650100
     25 O4           4.1900    -0.8530     3.0450 os         1 TI8      -0.386600
     26 C17          8.1270     1.1910    -3.7430 ca         1 TI8      -0.125500
     27 C18          8.7810    -0.0070    -3.9650 ca         1 TI8       0.038400
     28 C19          8.1250    -1.2050    -3.7410 ca         1 TI8      -0.125500
     29 N4           1.3500     0.0010     2.3560 nb         1 TI8      -0.740000
     30 Cl          10.4200    -0.0100    -4.5370 cl         1 TI8      -0.104400
     31 N5          -0.6330    -0.0040     1.1690 nb         1 TI8      -0.763000
     32 H1           5.4370    -0.3150     1.4620 h2         1 TI8       0.086700
     33 H2           3.7000     1.8590     2.7290 h1         1 TI8       0.075700
     34 H3           4.9230     1.6640     4.7120 h1         1 TI8       0.052700
     35 H4           5.9310    -1.0070     4.1600 h1         1 TI8       0.073700
     36 H5           4.8330    -0.1590     6.2680 hc         1 TI8       0.056200
     37 H6           3.2970    -0.1010     5.3920 hc         1 TI8       0.056200
     38 H7           3.4680    -2.5260     4.9310 hc         1 TI8       0.064200
     39 H8           5.0030    -2.5840     5.8070 hc         1 TI8       0.064200
     40 H9           3.8600    -1.8190     7.8620 h1         1 TI8       0.048700
     41 H10          2.3250    -1.7610     6.9860 h1         1 TI8       0.048700
     42 H11         -0.9760     0.8680    -1.6130 hn         1 TI8       0.440800
     43 H12         -0.9620    -0.8660    -1.6230 hn         1 TI8       0.440800
     44 H13          5.2600     3.1350     1.8840 ho         1 TI8       0.410000
     45 H14          1.3630    -6.7680    10.1430 ha         1 TI8       0.132500
     46 H15          1.1880    -4.9480    10.5640 ha         1 TI8       0.132500
     47 H16         -0.5210    -0.0020     3.2380 h5         1 TI8       0.059100
     48 H17          2.5340    -6.1860     8.1140 ha         1 TI8       0.144000
     49 H20          4.2370     0.8800    -2.9260 h1         1 TI8       0.061200
     50 H21          4.2360    -0.8890    -2.9240 h1         1 TI8       0.061200
     51 H22          7.0460     1.7970     4.5470 ho         1 TI8       0.406000
     52 H23          6.3070    -2.1410    -3.1080 ha         1 TI8       0.143500
     53 H24          8.6390     2.1290    -3.9200 ha         1 TI8       0.147500
     54 H25          8.6370    -2.1440    -3.9170 ha         1 TI8       0.147500
     55 N2           4.7400    -0.0030    -1.0970 nu         1 TI8      -0.871200
     56 C10          2.4260    -3.9960     8.4490 c          1 TI8       0.637300
     57 H18          6.3090     2.1300    -3.1130 ha         1 TI8       0.143500
     58 C12          1.5380    -5.7270     9.8980 c2         1 TI8      -0.130000
     59 H19          5.6040    -0.0310    -0.5940 hn         1 TI8       0.455800
@<TRIPOS>BOND
     1     9    10 1
     2     9     8 1
     3    25     7 1
     4    25     4 1
     5     7     8 1
     6     7     6 1
     7    10    13 1
     8    29    14 ar
     9    29     3 ar
    10    22     6 1
    11    14    31 ar
    12     4    16 1
    13     4     5 1
    14     3    16 1
    15     3     2 ar
    16    16    21 1
    17    31     1 ar
    18     6     5 1
    19     2     1 ar
    20     2    24 1
    21     1    11 1
    22    18    56 2
    23    21    55 1
    24    21    24 2
    25    13    56 1
    26    55    19 1
    27     5    12 1
    28    56    15 1
    29    19    20 1
    30    15    58 2
    31    20    23 ar
    32    20    17 ar
    33    23    28 ar
    34    17    26 ar
    35    28    27 ar
    36    26    27 ar
    37    27    30 1
    38     4    32 1
    39     5    33 1
    40     6    34 1
    41     7    35 1
    42     8    36 1
    43     8    37 1
    44     9    38 1
    45     9    39 1
    46    10    40 1
    47    10    41 1
    48    11    42 1
    49    11    43 1
    50    12    44 1
    51    58    45 1
    52    58    46 1
    53    14    47 1
    54    15    48 1
    55    17    57 1
    56    55    59 1
    57    19    49 1
    58    19    50 1
    59    22    51 1
    60    23    52 1
    61    26    53 1
    62    28    54 1
@<TRIPOS>SUBSTRUCTURE
     1 TI8         1 TEMP              0 ****  ****    0 ROOT
