@<TRIPOS>MOLECULE
TI8
   59    62     1     0     0
SMALL
bcc


@<TRIPOS>ATOM
      1 C            0.0000     0.0000     0.0000 ca         1 TI8       0.568200
      2 C1           1.4040     0.0000     0.0000 ca         1 TI8      -0.134200
      3 C2           2.0680     0.0000     1.2370 ca         1 TI8       0.229800
      4 C3           4.5080    -0.0020     1.9240 c3         1 TI8       0.158800
      5 C4           4.6680     1.3990     2.5670 c3         1 TI8       0.126100
      6 C5           5.3460     1.0610     3.9170 c3         1 TI8       0.126100
      7 C6           5.0160    -0.4270     4.1430 c3         1 TI8       0.160100
      8 C7           4.2570    -0.5970     5.4610 c3         1 TI8      -0.028400
      9 C8           4.0430    -2.0880     5.7380 c3         1 TI8      -0.040400
     10 C9           3.2850    -2.2570     7.0550 c3         1 TI8       0.227400
     11 N           -0.7090     0.0010    -1.1900 nv         1 TI8      -0.641500
     12 O            5.5100     2.2330     1.7690 oh         1 TI8      -0.560800
     13 O2           3.0830    -3.6710     7.3180 os         1 TI8      -0.409900
     14 C21          0.0340     0.0020     2.3080 ca         1 TI8       0.610900
     15 C11          2.1840    -5.4070     8.7790 ce         1 TI8      -0.212200
     16 N1           3.4140    -0.0020     0.9500 na         1 TI8       0.165000
     17 C16          6.8220     1.1920    -3.2870 ca         1 TI8      -0.071500
     18 O3           2.0330    -3.1210     9.1950 o          1 TI8      -0.595000
     19 C14          4.7460    -0.0050    -2.5620 c3         1 TI8       0.240100
     20 C15          6.1690    -0.0060    -3.0580 ca         1 TI8      -0.128300
     21 C13          3.5420    -0.0020    -0.4120 cc         1 TI8       0.365700
     22 O1           6.7580     1.2560     3.8300 oh         1 TI8      -0.557800
     23 C20          6.8200    -1.2040    -3.2850 ca         1 TI8      -0.071500
     24 N3           2.3560    -0.0020    -0.9680 nd         1 TI8      -0.584100
     25 O4           4.1900    -0.8530     3.0450 os         1 TI8      -0.374600
     26 C17          8.1270     1.1910    -3.7430 ca         1 TI8      -0.101000
     27 C18          8.7810    -0.0070    -3.9650 ca         1 TI8      -0.026600
     28 C19          8.1250    -1.2050    -3.7410 ca         1 TI8      -0.101000
     29 N4           1.3500     0.0010     2.3560 nb         1 TI8      -0.602000
     30 Cl          10.4200    -0.0100    -4.5370 cl         1 TI8      -0.022400
     31 N5          -0.6330    -0.0040     1.1690 nb         1 TI8      -0.648000
     32 H1           5.4370    -0.3150     1.4620 h2         1 TI8       0.048700
     33 H2           3.7000     1.8590     2.7290 h1         1 TI8       0.038700
     34 H3           4.9230     1.6640     4.7120 h1         1 TI8       0.018700
     35 H4           5.9310    -1.0070     4.1600 h1         1 TI8       0.040700
     36 H5           4.8330    -0.1600     6.2680 hc         1 TI8       0.027200
     37 H6           3.2970    -0.1010     5.3920 hc         1 TI8       0.027200
     38 H7           5.0030    -2.5840     5.8070 hc         1 TI8       0.031200
     39 H8           3.4680    -2.5260     4.9310 hc         1 TI8       0.031200
     40 H9           3.8600    -1.8190     7.8620 h1         1 TI8       0.010700
     41 H10          2.3240    -1.7620     6.9860 h1         1 TI8       0.010700
     42 H11         -0.9740    -0.8660    -1.6150 hn         1 TI8       0.277300
     43 H12         -0.9830     0.8670    -1.6090 hn         1 TI8       0.277300
     44 H13          5.2600     3.1350     1.8830 ho         1 TI8       0.396000
     45 H14          1.1880    -4.9480    10.5640 ha         1 TI8       0.093000
     46 H15          1.3630    -6.7680    10.1430 ha         1 TI8       0.093000
     47 H16         -0.5210    -0.0020     3.2380 h5         1 TI8      -0.002900
     48 H17          2.5340    -6.1860     8.1140 ha         1 TI8       0.116000
     49 H20          4.2360    -0.8890    -2.9240 h1         1 TI8       0.029200
     50 H21          4.2370     0.8800    -2.9260 h1         1 TI8       0.029200
     51 H22          7.0450     1.8000     4.5440 ho         1 TI8       0.391000
     52 H23          6.3070    -2.1410    -3.1080 ha         1 TI8       0.112000
     53 H24          8.6390     2.1290    -3.9200 ha         1 TI8       0.117000
     54 H25          8.6370    -2.1440    -3.9170 ha         1 TI8       0.117000
     55 N2           4.7400    -0.0030    -1.0970 nu         1 TI8      -0.462200
     56 C10          2.4260    -3.9960     8.4490 c          1 TI8       0.704300
     57 H18          6.3090     2.1300    -3.1130 ha         1 TI8       0.112000
     58 C12          1.5380    -5.7270     9.8980 c2         1 TI8      -0.056000
     59 H19          5.6050    -0.0250    -0.5940 hn         1 TI8       0.301800
@<TRIPOS>BOND
     1     1     2 ar  
     2     1    11 1   
     3     1    31 ar  
     4     2     3 ar  
     5     2    24 1   
     6     3    16 1   
     7     3    29 ar  
     8     4     5 1   
     9     4    16 1   
    10     4    25 1   
    11     4    32 1   
    12     5     6 1   
    13     5    12 1   
    14     5    33 1   
    15     6     7 1   
    16     6    22 1   
    17     6    34 1   
    18     7     8 1   
    19     7    25 1   
    20     7    35 1   
    21     8     9 1   
    22     8    36 1   
    23     8    37 1   
    24     9    10 1   
    25     9    38 1   
    26     9    39 1   
    27    10    13 1   
    28    10    40 1   
    29    10    41 1   
    30    11    42 1   
    31    11    43 1   
    32    12    44 1   
    33    13    56 1   
    34    14    29 ar  
    35    14    31 ar  
    36    14    47 1   
    37    15    48 1   
    38    15    56 1   
    39    15    58 2   
    40    16    21 1   
    41    17    20 ar  
    42    17    26 ar  
    43    17    57 1   
    44    18    56 2   
    45    19    20 1   
    46    19    49 1   
    47    19    50 1   
    48    19    55 1   
    49    20    23 ar  
    50    21    24 2   
    51    21    55 1   
    52    22    51 1   
    53    23    28 ar  
    54    23    52 1   
    55    26    27 ar  
    56    26    53 1   
    57    27    28 ar  
    58    27    30 1   
    59    28    54 1   
    60    45    58 1   
    61    46    58 1   
    62    55    59 1   
@<TRIPOS>SUBSTRUCTURE
     1 TI8         1 TEMP              0 ****  ****    0 ROOT
