@<TRIPOS>MOLECULE
TI9
   25    26     1     0     0
SMALL
bcc


@<TRIPOS>ATOM
      1 C13          0.0000     0.0000     0.0000 c3         1 TI9      -0.081400
      2 C12          1.5420     0.0000     0.0000 c3         1 TI9      -0.032400
      3 C11          1.9420     0.0000     1.4910 c3         1 TI9       0.064800
      4 N10          0.7690    -0.5820     2.1940 n7         1 TI9      -0.556200
      5 C9          -0.4020    -0.0010     1.4900 c3         1 TI9       0.244600
      6 C8          -1.5940    -0.8380     1.7000 c1         1 TI9      -0.131100
      7 C7          -2.5420    -1.5150     1.8500 cg         1 TI9      -0.133000
      8 C5          -3.6640    -2.6370     2.0360 ca         1 TI9      -0.049300
      9 C6          -3.4110    -3.9890     2.6650 ca         1 TI9      -0.001000
     10 C1          -4.4600    -4.6230     2.6650 ca         1 TI9      -0.239300
     11 C4          -4.8050    -2.2260     1.5760 ca         1 TI9       0.404200
     12 N3          -5.8730    -3.0400     1.6470 nb         1 TI9      -0.619000
     13 C2          -5.6560    -4.4070     2.2730 ca         1 TI9       0.430200
     14 H131        -0.3730     0.5680    -0.8440 hc         1 TI9       0.041200
     15 H132        -0.3730    -1.0170    -0.0320 hc         1 TI9       0.041200
     16 H121         1.9160     1.0160    -0.0300 hc         1 TI9       0.022200
     17 H122         1.9160    -0.5690    -0.8430 hc         1 TI9       0.022200
     18 H112         2.3220    -0.9740     1.7760 h1         1 TI9       0.050200
     19 H111         2.6830     0.7670     1.6790 h1         1 TI9       0.050200
     20 HN10         0.5090     0.0120     2.9560 hn         1 TI9       0.256800
     21 H14         -0.5790     1.0120     1.8310 h1         1 TI9       0.010700
     22 H6          -2.4540    -4.3360     3.0340 ha         1 TI9       0.131000
     23 H1          -4.3190    -5.6180     3.0680 ha         1 TI9       0.083000
     24 H4          -4.8750    -1.2960     1.0240 h4         1 TI9      -0.002900
     25 H2          -6.4330    -5.1600     2.3230 h4         1 TI9      -0.004900
@<TRIPOS>BOND
     1     1     2 1   
     2     1     5 1   
     3     1    14 1   
     4     1    15 1   
     5     2     3 1   
     6     2    16 1   
     7     2    17 1   
     8     3     4 1   
     9     3    18 1   
    10     3    19 1   
    11     4     5 1   
    12     4    20 1   
    13     5     6 1   
    14     5    21 1   
    15     6     7 3   
    16     7     8 1   
    17     8     9 ar  
    18     8    11 ar  
    19     9    10 ar  
    20     9    22 1   
    21    10    13 ar  
    22    10    23 1   
    23    11    12 ar  
    24    11    24 1   
    25    12    13 ar  
    26    13    25 1   
@<TRIPOS>SUBSTRUCTURE
     1 TI9         1 TEMP              0 ****  ****    0 ROOT
