@<TRIPOS>MOLECULE
molecule
   25    26     1     0     0
SMALL
bcc


@<TRIPOS>ATOM
      1 C13          0.0000     0.0000     0.0000 c3         1 TI9      -0.118400
      2 C12          1.5420     0.0000     0.0000 c3         1 TI9      -0.094400
      3 C11          1.9420     0.0000     1.4910 c3         1 TI9       0.047800
      4 N10          0.7690    -0.5820     2.1940 n7         1 TI9      -0.669200
      5 C9          -0.4020    -0.0010     1.4900 c3         1 TI9       0.192600
      6 C8          -1.5940    -0.8380     1.7000 c1         1 TI9      -0.115100
      7 C7          -2.5420    -1.5150     1.8500 cg         1 TI9      -0.136000
      8 C5          -3.6640    -2.6370     2.0360 ca         1 TI9      -0.080300
      9 C6          -3.4110    -3.9890     2.6650 ca         1 TI9      -0.033000
     10 C1          -4.4600    -4.6230     2.6650 ca         1 TI9      -0.249300
     11 C4          -4.8050    -2.2260     1.5760 ca         1 TI9       0.402200
     12 N3          -5.8730    -3.0400     1.6470 nb         1 TI9      -0.664000
     13 C2          -5.6560    -4.4070     2.2730 ca         1 TI9       0.406200
     14 H131        -0.3730     0.5680    -0.8440 hc         1 TI9       0.068700
     15 H132        -0.3730    -1.0170    -0.0320 hc         1 TI9       0.068700
     16 H121         1.9160     1.0160    -0.0300 hc         1 TI9       0.051700
     17 H122         1.9160    -0.5690    -0.8430 hc         1 TI9       0.051700
     18 H112         2.3220    -0.9740     1.7760 h1         1 TI9       0.079700
     19 H111         2.6830     0.7670     1.6790 h1         1 TI9       0.079700
     20 HN10         0.5090     0.0120     2.9560 hn         1 TI9       0.317800
     21 H14         -0.5790     1.0120     1.8310 h1         1 TI9       0.041700
     22 H6          -2.4540    -4.3360     3.0340 ha         1 TI9       0.165000
     23 H1          -4.3190    -5.6180     3.0680 ha         1 TI9       0.107000
     24 H4          -4.8750    -1.2960     1.0240 h4         1 TI9       0.039100
     25 H2          -6.4330    -5.1600     2.3230 h4         1 TI9       0.039100
@<TRIPOS>BOND
     1     1     2 1
     2     1     5 1
     3     2     3 1
     4     5     4 1
     5     5     6 1
     6     3     4 1
     7     6     7 3
     8     7     8 1
     9     8    11 ar
    10     8     9 ar
    11    11    12 ar
    12     9    10 ar
    13    12    13 ar
    14    10    13 ar
    15     1    14 1
    16     1    15 1
    17     2    16 1
    18     2    17 1
    19     3    18 1
    20     3    19 1
    21     4    20 1
    22     5    21 1
    23     9    22 1
    24    10    23 1
    25    11    24 1
    26    13    25 1
@<TRIPOS>SUBSTRUCTURE
     1 TI9         1 TEMP              0 ****  ****    0 ROOT
