@<TRIPOS>MOLECULE
TIA
   29    30     1     0     0
SMALL
bcc


@<TRIPOS>ATOM
      1 S1          0.6490    1.6570   -0.0810 ss        1 TIA      0.205700
      2 C2          1.9420    0.5090   -0.1220 cc        1 TIA      0.379700
      3 N3          2.1910   -0.0760    1.0500 nd        1 TIA     -0.636000
      4 C4          1.3020    0.4260    2.0020 cd        1 TIA      0.186800
      5 C5          0.3970    1.3850    1.5120 cc        1 TIA     -0.192400
      6 C6          1.3220   -0.0080    3.3830 c         1 TIA      0.500600
      7 O6          0.5990    0.3150    4.3140 o         1 TIA     -0.421100
      8 N6          2.4070   -1.0110    3.7330 n4        1 TIA     -0.747400
      9 C1'         2.7500    0.2430   -1.3590 c3        1 TIA      0.069800
     10 C2'         2.8050   -1.2550   -1.7410 c3        1 TIA      0.103100
     11 O2'         4.0860   -1.7940   -1.5340 oh        1 TIA     -0.582800
     12 C3'         2.3780   -1.3000   -3.2280 c3        1 TIA      0.083100
     13 O3'         3.4900   -1.6320   -4.0370 oh        1 TIA     -0.584800
     14 C4'         1.9560    0.1340   -3.5920 c3        1 TIA      0.138100
     15 O4'         2.1730    0.9740   -2.4380 os        1 TIA     -0.427600
     16 C5'         0.5010    0.2290   -3.9940 c3        1 TIA     -0.112100
     17 H5         -0.3630    1.8720    2.1330 h4        1 TIA      0.221000
     18 HN61        3.3270   -0.6070    3.5290 hn        1 TIA      0.472467
     19 HN62        2.3520   -1.2590    4.7270 hn        1 TIA      0.472467
     20 H1'         3.7920    0.6500   -1.2020 h1        1 TIA      0.105700
     21 H2'         2.1250   -1.8760   -1.1000 h1        1 TIA      0.091700
     22 HO2'        4.6850   -1.4140   -2.1970 ho        1 TIA      0.430000
     23 H3'         1.5400   -2.0280   -3.3840 h1        1 TIA      0.073700
     24 HO3'        3.6130   -2.5890   -3.9750 ho        1 TIA      0.425000
     25 H4'         2.6250    0.5490   -4.3990 h1        1 TIA      0.105700
     26 H5'1       -0.1640   -0.2120   -3.2150 hc        1 TIA      0.055367
     27 H5'2        0.2180    1.3000   -4.1390 hc        1 TIA      0.055367
     28 H5'3        0.3480   -0.3180   -4.9560 hc        1 TIA      0.055367
     29 H63         2.2930   -1.8550    3.1610 hn        1 TIA      0.472467
@<TRIPOS>BOND
     1    1    2 1
     2    1    5 1
     3    2    3 2
     4    2    9 1
     5    3    4 1
     6    4    5 2
     7    4    6 1
     8    5   17 1
     9    6    7 2
    10    6    8 1
    11    8   18 1
    12    8   19 1
    13    8   29 1
    14    9   10 1
    15    9   15 1
    16    9   20 1
    17   10   11 1
    18   10   12 1
    19   10   21 1
    20   11   22 1
    21   12   13 1
    22   12   14 1
    23   12   23 1
    24   13   24 1
    25   14   15 1
    26   14   16 1
    27   14   25 1
    28   16   26 1
    29   16   27 1
    30   16   28 1
@<TRIPOS>SUBSTRUCTURE
     1 TIA         1 TEMP              0 ****  ****    0 ROOT
