@<TRIPOS>MOLECULE
TIB
   41    43     1     0     0
SMALL
bcc


@<TRIPOS>ATOM
      1 N1          0.1540   -0.2270   -0.1200 n         1 TIB     -0.290000
      2 C2          1.4970    0.1930    0.1710 c3        1 TIB      0.099000
      3 C3          1.7780    0.4560    1.6750 c3        1 TIB      0.187500
      4 N4          1.6890   -0.8000    2.4170 n3        1 TIB     -0.758600
      5 C5          0.3810   -1.0130    3.0070 c3        1 TIB      0.227100
      6 C6         -1.7940   -2.0990    2.5130 ca        1 TIB     -0.131000
      7 C7         -2.8780   -2.4310    1.6980 ca        1 TIB      0.024400
      8 CL7        -4.1670   -3.3270    2.3550 cl        1 TIB     -0.088400
      9 C8         -2.9410   -2.0490    0.3530 ca        1 TIB     -0.129000
     10 C9         -1.8660   -1.3210   -0.1440 ca        1 TIB     -0.000400
     11 N10        -1.6250   -0.7860   -1.4170 n         1 TIB     -0.402100
     12 C11        -0.3850   -0.1210   -1.4250 c         1 TIB      0.516400
     13 S11         0.2530    0.6270   -2.6740 s         1 TIB     -0.515400
     14 C12        -0.7260   -0.9740    0.6890 ca        1 TIB      0.019600
     15 C13        -0.7030   -1.3620    2.0290 ca        1 TIB     -0.054300
     16 C14         3.1140    1.1940    1.7390 c3        1 TIB     -0.105100
     17 C15         2.7890   -1.0820    3.3250 c3        1 TIB      0.222000
     18 C16         2.8030   -2.4820    3.8520 c2        1 TIB     -0.189200
     19 C17         3.4240   -2.8270    4.9910 c2        1 TIB     -0.115400
     20 C18         3.4600   -4.2370    5.4530 c3        1 TIB     -0.061400
     21 C19         4.1150   -1.8480    5.8640 c3        1 TIB     -0.061400
     22 H21         1.6770    1.1510   -0.4020 h1        1 TIB      0.078700
     23 H22         2.2180   -0.5870   -0.2130 h1        1 TIB      0.078700
     24 H3          0.9920    1.1820    2.0560 h1        1 TIB      0.045700
     25 H51         0.4610   -1.8600    3.7510 h1        1 TIB      0.051700
     26 H52         0.0270   -0.1020    3.5820 h1        1 TIB      0.051700
     27 H6         -1.7910   -2.4210    3.5670 ha        1 TIB      0.151000
     28 H8         -3.8010   -2.3110   -0.2780 ha        1 TIB      0.158000
     29 H10        -2.2150   -0.8610   -2.2070 hn        1 TIB      0.367500
     30 H141        3.3980    1.4120    2.7960 hc        1 TIB      0.048367
     31 H142        3.9290    0.6060    1.2550 hc        1 TIB      0.048367
     32 H143        3.0140    2.1670    1.1980 hc        1 TIB      0.048367
     33 H151        3.7540   -0.9430    2.7520 h1        1 TIB      0.041200
     34 H152        2.7990   -0.3540    4.1930 h1        1 TIB      0.041200
     35 H16         2.3120   -3.2450    3.2270 ha        1 TIB      0.140000
     36 H181        3.0210   -4.3140    6.4790 hc        1 TIB      0.042867
     37 H182        2.8870   -4.9110    4.7710 hc        1 TIB      0.042867
     38 H183        4.5190   -4.5960    5.4980 hc        1 TIB      0.042867
     39 H191        4.6740   -2.3610    6.6840 hc        1 TIB      0.042867
     40 H192        4.8420   -1.2370    5.2720 hc        1 TIB      0.042867
     41 H193        3.3730   -1.1500    6.3300 hc        1 TIB      0.042867
@<TRIPOS>BOND
     1    1    2 1   
     2    1   12 1   
     3    1   14 1   
     4    2    3 1   
     5    2   22 1   
     6    2   23 1   
     7    3    4 1   
     8    3   16 1   
     9    3   24 1   
    10    4    5 1   
    11    4   17 1   
    12    5   15 1   
    13    5   25 1   
    14    5   26 1   
    15    6    7 ar  
    16    6   15 ar  
    17    6   27 1   
    18    7    8 1   
    19    7    9 ar  
    20    9   10 ar  
    21    9   28 1   
    22   10   11 1   
    23   10   14 ar  
    24   11   12 1   
    25   11   29 1   
    26   12   13 2   
    27   14   15 ar  
    28   16   30 1   
    29   16   31 1   
    30   16   32 1   
    31   17   18 1   
    32   17   33 1   
    33   17   34 1   
    34   18   19 2   
    35   18   35 1   
    36   19   20 1   
    37   19   21 1   
    38   20   36 1   
    39   20   37 1   
    40   20   38 1   
    41   21   39 1   
    42   21   40 1   
    43   21   41 1   
@<TRIPOS>SUBSTRUCTURE
     1 TIB         1 TEMP              0 ****  ****    0 ROOT
