@<TRIPOS>MOLECULE
TIC
   31    33     1     0     0
SMALL
bcc


@<TRIPOS>ATOM
      1 C1           0.0000     0.0000     0.0000 c3         1 TIC       0.147800
      2 N1           1.4690     0.0000     0.0000 n3         1 TIC      -0.534600
      3 S1          -0.2180     3.0280     2.8370 ss         1 TIC      -0.281800
      4 Cl1          3.7250    -1.9190     1.5690 cl         1 TIC      -0.025400
      5 C2           2.0030     0.0000     1.3700 c3         1 TIC       0.187100
      6 C3          -0.5030     1.3770     0.4500 c3         1 TIC       0.079900
      7 C4           1.3630     1.1470     2.1400 cc         1 TIC      -0.120300
      8 C5           0.2390     1.7570     1.7150 cd         1 TIC       0.014600
      9 C6           1.9960    -1.1350    -0.7690 c3         1 TIC       0.206100
     10 C7           3.4820    -0.9690    -0.9550 ca         1 TIC      -0.081300
     11 C8           1.8650     1.6670     3.3280 cc         1 TIC      -0.111000
     12 C9           1.1690     2.6710     3.8560 cd         1 TIC      -0.000100
     13 C10          4.3490    -1.3060     0.0700 ca         1 TIC      -0.035600
     14 C11          3.9800    -0.4840    -2.1500 ca         1 TIC      -0.072000
     15 C12          5.7140    -1.1530    -0.1020 ca         1 TIC      -0.096000
     16 C13          5.3440    -0.3330    -2.3200 ca         1 TIC      -0.097000
     17 C14          6.2100    -0.6640    -1.2940 ca         1 TIC      -0.091000
     18 H1          -0.3610    -0.2070    -1.0000 h1         1 TIC       0.011700
     19 H1A         -0.3610    -0.7580     0.6850 h1         1 TIC       0.011700
     20 H2           3.0700     0.1770     1.3190 h1         1 TIC       0.042700
     21 H2A          1.7170    -0.9300     1.8460 h1         1 TIC       0.042700
     22 H3          -0.2580     2.0990    -0.3200 hc         1 TIC       0.032200
     23 H3A         -1.5580     1.2960     0.6830 hc         1 TIC       0.032200
     24 H6           1.8000    -2.0560    -0.2350 h1         1 TIC       0.017700
     25 H6A          1.5130    -1.1700    -1.7380 h1         1 TIC       0.017700
     26 H8           2.7630     1.2810     3.7940 ha         1 TIC       0.118000
     27 H9           1.4190     3.1900     4.7730 h4         1 TIC       0.148000
     28 H11          3.3020    -0.2250    -2.9540 ha         1 TIC       0.111000
     29 H12          6.3930    -1.4120     0.7020 ha         1 TIC       0.114000
     30 H13          5.7340     0.0490    -3.2560 ha         1 TIC       0.105000
     31 H14          7.2790    -0.5440    -1.4280 ha         1 TIC       0.106000
@<TRIPOS>BOND
     1     1     2 1   
     2     1     6 1   
     3     1    18 1   
     4     1    19 1   
     5     2     5 1   
     6     2     9 1   
     7     3     8 1   
     8     3    12 1   
     9     4    13 1   
    10     5     7 1   
    11     5    20 1   
    12     5    21 1   
    13     6     8 1   
    14     6    22 1   
    15     6    23 1   
    16     7     8 2   
    17     7    11 1   
    18     9    10 1   
    19     9    24 1   
    20     9    25 1   
    21    10    13 ar  
    22    10    14 ar  
    23    11    12 2   
    24    11    26 1   
    25    12    27 1   
    26    13    15 ar  
    27    14    16 ar  
    28    14    28 1   
    29    15    17 ar  
    30    15    29 1   
    31    16    17 ar  
    32    16    30 1   
    33    17    31 1   
@<TRIPOS>SUBSTRUCTURE
     1 TIC         1 TEMP              0 ****  ****    0 ROOT
