@<TRIPOS>MOLECULE
TID
   21    22     1     0     0
SMALL
bcc


@<TRIPOS>ATOM
      1 C1           0.0000     0.0000     0.0000 ca         1 TID      -0.091000
      2 C2           1.3980     0.0000     0.0000 ca         1 TID      -0.198500
      3 C3           2.0980     0.0000     1.2100 ca         1 TID      -0.091000
      4 C4           1.4160    -0.0010     2.3930 ca         1 TID      -0.091500
      5 C5           0.0170    -0.0010     2.3940 ca         1 TID      -0.059600
      6 C6          -0.6830    -0.0010     1.1820 ca         1 TID      -0.091500
      7 C13         -0.7200    -0.0020     3.6710 c          1 TID       0.965200
      8 O15         -0.1130    -0.0030     4.7230 o          1 TID      -0.876800
      9 O17         -2.0680    -0.0030     3.6710 o          1 TID      -0.876800
     10 C19          2.1370     0.0010    -1.2790 cc         1 TID       0.572900
     11 N21          1.6090     0.0010    -2.4720 nd         1 TID      -0.331000
     12 N22          2.4160     0.0010    -3.4430 nd         1 TID      -0.285000
     13 C23          3.6890     0.0020    -3.1690 cc         1 TID       0.454300
     14 S24          3.8900     0.0090    -1.4670 ss         1 TID      -0.445800
     15 N30          4.7130     0.0030    -4.1000 nv         1 TID      -0.552500
     16 H1          -0.5420     0.0000    -0.9380 ha         1 TID       0.102000
     17 H3           3.1810     0.0000     1.2100 ha         1 TID       0.102000
     18 H4           1.9580    -0.0010     3.3310 ha         1 TID       0.131000
     19 H6          -1.7660    -0.0010     1.1820 ha         1 TID       0.131000
     20 HN30         5.0890     0.8700    -4.4300 hn         1 TID       0.266800
     21 HN3A         5.0890    -0.8640    -4.4310 hn         1 TID       0.266800
@<TRIPOS>BOND
     1     1     2 ar  
     2     1     6 ar  
     3     1    16 1   
     4     2     3 ar  
     5     2    10 1   
     6     3     4 ar  
     7     3    17 1   
     8     4     5 ar  
     9     4    18 1   
    10     5     6 ar  
    11     5     7 1   
    12     6    19 1   
    13     7     8 1   
    14     7     9 1   
    15    10    11 2   
    16    10    14 1   
    17    11    12 1   
    18    12    13 2   
    19    13    14 1   
    20    13    15 1   
    21    15    20 1   
    22    15    21 1   
@<TRIPOS>SUBSTRUCTURE
     1 TID         1 TEMP              0 ****  ****    0 ROOT
