@<TRIPOS>MOLECULE
molecule
   21    22     1     0     0
SMALL
bcc


@<TRIPOS>ATOM
      1 C1           0.0000     0.0000     0.0000 ca         1 TID      -0.114500
      2 C2           1.3980     0.0000     0.0000 ca         1 TID      -0.185500
      3 C3           2.0980     0.0000     1.2100 ca         1 TID      -0.114500
      4 C4           1.4160    -0.0010     2.3930 ca         1 TID      -0.114500
      5 C5           0.0170    -0.0010     2.3940 ca         1 TID      -0.067600
      6 C6          -0.6830    -0.0010     1.1820 ca         1 TID      -0.114500
      7 C13         -0.7200    -0.0020     3.6710 c          1 TID       0.876200
      8 O15         -0.1130    -0.0030     4.7230 o          1 TID      -0.829300
      9 O17         -2.0680    -0.0030     3.6710 o          1 TID      -0.829300
     10 C19          2.1370     0.0010    -1.2790 cc         1 TID       0.536900
     11 N21          1.6090     0.0010    -2.4720 nd         1 TID      -0.349000
     12 N22          2.4160     0.0010    -3.4430 nd         1 TID      -0.348000
     13 C23          3.6890     0.0020    -3.1690 cc         1 TID       0.611300
     14 S24          3.8900     0.0090    -1.4670 ss         1 TID      -0.359800
     15 N30          4.7130     0.0030    -4.1000 nv         1 TID      -1.026500
     16 H1          -0.5420     0.0000    -0.9380 ha         1 TID       0.122500
     17 H3           3.1810     0.0000     1.2100 ha         1 TID       0.122500
     18 H4           1.9580    -0.0010     3.3310 ha         1 TID       0.157500
     19 H6          -1.7660    -0.0010     1.1820 ha         1 TID       0.157500
     20 HN30         5.0890     0.8700    -4.4300 hn         1 TID       0.435800
     21 HN3A         5.0890    -0.8640    -4.4310 hn         1 TID       0.435800
@<TRIPOS>BOND
     1     1     2 ar
     2     1     6 ar
     3     2     3 ar
     4     2    10 1
     5     3     4 ar
     6     4     5 ar
     7     5     6 ar
     8     5     7 1
     9     7     8 1
    10     7     9 1
    11    10    11 2
    12    10    14 1
    13    11    12 1
    14    12    13 2
    15    13    14 1
    16    13    15 1
    17     1    16 1
    18     3    17 1
    19     4    18 1
    20     6    19 1
    21    15    20 1
    22    15    21 1
@<TRIPOS>SUBSTRUCTURE
     1 TID         1 TEMP              0 ****  ****    0 ROOT
