@<TRIPOS>MOLECULE
TII
   45    47     1     0     0
SMALL
bcc


@<TRIPOS>ATOM
      1 C17          0.0000     0.0000     0.0000 c3         1 TII       0.171100
      2 N16          1.4690     0.0000     0.0000 n3         1 TII      -0.529600
      3 C18          2.0000     0.0000     1.3820 c3         1 TII       0.149800
      4 C19          3.3020     0.8370     1.3060 c3         1 TII      -0.030400
      5 C20          2.9120     1.9350     0.2790 c3         1 TII      -0.041400
      6 C15          1.9950     1.1810    -0.6940 c3         1 TII       0.106200
      7 C1           2.7610     0.7830    -1.9600 c3         1 TII       0.135800
      8 C14          0.8490     2.0950    -1.1660 c3         1 TII      -0.082400
      9 C13          1.3580     2.5990    -2.5410 c3         1 TII       0.138800
     10 N2           2.0600     1.4160    -3.1020 nh         1 TII      -0.351000
     11 C3           2.9640     1.7940    -4.0970 ca         1 TII      -0.043700
     12 C12          4.0830     1.0130    -4.3690 ca         1 TII      -0.243000
     13 C7           4.9530     1.4320    -5.3680 ca         1 TII       0.067800
     14 O8           6.0590     0.7010    -5.6690 os         1 TII      -0.292900
     15 C9           6.2140    -0.5490    -4.9950 c3         1 TII       0.162100
     16 C11          7.0760    -1.4830    -5.8460 c3         1 TII      -0.016100
     17 C10          6.8920    -0.3200    -3.6430 c3         1 TII      -0.016100
     18 C6           4.6770     2.6060    -6.0550 ca         1 TII       0.325200
     19 N5           3.6070     3.3200    -5.7710 nb         1 TII      -0.517000
     20 C4           2.7550     2.9540    -4.8340 ca         1 TII       0.299200
     21 H173        -0.3610     0.9260     0.4320 h1         1 TII       0.009367
     22 H171        -0.3610    -0.0890    -1.0170 h1         1 TII       0.009367
     23 H172        -0.3610    -0.8370     0.5860 h1         1 TII       0.009367
     24 H181         2.2220    -1.0120     1.6990 h1         1 TII       0.015200
     25 H182         1.2920     0.4660     2.0560 h1         1 TII       0.015200
     26 H191         4.1240     0.2380     0.9360 hc         1 TII       0.023200
     27 H192         3.5340     1.2760     2.2690 hc         1 TII       0.023200
     28 H201         3.7900     2.3070    -0.2340 hc         1 TII       0.027200
     29 H202         2.3730     2.7400     0.7660 hc         1 TII       0.027200
     30 H11          3.7800     1.1470    -1.9050 h1         1 TII       0.035700
     31 H12          2.7530    -0.2950    -2.0740 h1         1 TII       0.035700
     32 H141        -0.0680     1.5300    -1.2810 hc         1 TII       0.046200
     33 H142         0.7150     2.9240    -0.4810 hc         1 TII       0.046200
     34 H131         0.5260     2.8830    -3.1740 h1         1 TII       0.024700
     35 H132         2.0480     3.4250    -2.4120 h1         1 TII       0.024700
     36 H120         4.1410    -0.0000    -3.9900 ha         1 TII       0.144000
     37 H9           5.2400    -0.9990    -4.8390 h1         1 TII       0.020700
     38 H113         7.2540    -2.4050    -5.3050 hc         1 TII       0.013867
     39 H111         6.5630    -1.7030    -6.7740 hc         1 TII       0.013867
     40 H112         8.0230    -1.0030    -6.0620 hc         1 TII       0.013867
     41 H102         6.7650     0.7140    -3.3460 hc         1 TII       0.013867
     42 H103         7.9490    -0.5430    -3.7270 hc         1 TII       0.013867
     43 H101         6.4440    -0.9670    -2.9000 hc         1 TII       0.013867
     44 H6           5.3520     2.9400    -6.8340 h4         1 TII      -0.007900
     45 H4           1.8870     3.5690    -4.6300 h4         1 TII      -0.005900
@<TRIPOS>BOND
     1     1     2 1   
     2     1    21 1   
     3     1    22 1   
     4     1    23 1   
     5     2     3 1   
     6     2     6 1   
     7     3     4 1   
     8     3    24 1   
     9     3    25 1   
    10     4     5 1   
    11     4    26 1   
    12     4    27 1   
    13     5     6 1   
    14     5    28 1   
    15     5    29 1   
    16     6     7 1   
    17     6     8 1   
    18     7    10 1   
    19     7    30 1   
    20     7    31 1   
    21     8     9 1   
    22     8    32 1   
    23     8    33 1   
    24     9    10 1   
    25     9    34 1   
    26     9    35 1   
    27    10    11 1   
    28    11    12 ar  
    29    11    20 ar  
    30    12    13 ar  
    31    12    36 1   
    32    13    14 1   
    33    13    18 ar  
    34    14    15 1   
    35    15    16 1   
    36    15    17 1   
    37    15    37 1   
    38    16    38 1   
    39    16    39 1   
    40    16    40 1   
    41    17    41 1   
    42    17    42 1   
    43    17    43 1   
    44    18    19 ar  
    45    18    44 1   
    46    19    20 ar  
    47    20    45 1   
@<TRIPOS>SUBSTRUCTURE
     1 TII         1 TEMP              0 ****  ****    0 ROOT
