@<TRIPOS>MOLECULE
molecule
   45    46     1     0     0
SMALL
bcc


@<TRIPOS>ATOM
      1 C5           0.0000     0.0000     0.0000 c3         1 TIM       0.125800
      2 C6           1.5310     0.0000     0.0000 c3         1 TIM       0.136900
      3 O1           2.0020     0.0000     1.3510 os         1 TIM      -0.423600
      4 C2           1.5490     1.1180     2.1190 c3         1 TIM       0.136900
      5 C3           0.0180     1.1290     2.1400 c3         1 TIM       0.125800
      6 N4          -0.4850     1.1630     0.7590 nh         1 TIM      -0.666300
      7 C7          -1.8840     1.2280     0.7370 cc         1 TIM       0.447900
      8 N8          -2.6130     0.3440     0.1070 nd         1 TIM      -0.510100
      9 S9          -4.2300     0.8020     0.3380 ss         1 TIM       0.344200
     10 N10         -3.8870     2.1720     1.2770 nd         1 TIM      -0.555100
     11 C11         -2.5850     2.2310     1.3840 cc         1 TIM       0.494300
     12 O12         -1.9600     3.2150     2.0840 os         1 TIM      -0.417100
     13 C13         -2.7910     4.1940     2.7100 c3         1 TIM       0.128400
     14 C14         -1.9160     5.2130     3.4440 c3         1 TIM       0.149100
     15 O15         -1.1280     5.9350     2.4960 oh         1 TIM      -0.580800
     16 C16         -2.8060     6.1880     4.2170 c3         1 TIM       0.143800
     17 N17         -1.9660     7.1650     4.9220 n7         1 TIM      -0.801200
     18 C18         -2.7890     8.1200     5.6760 c3         1 TIM       0.167200
     19 C19         -3.6310     7.3640     6.7060 c3         1 TIM      -0.096100
     20 C20         -1.8800     9.1200     6.3950 c3         1 TIM      -0.096100
     21 C21         -3.7110     8.8700     4.7130 c3         1 TIM      -0.096100
     22 H5          -0.3600     0.0590    -1.0200 h1         1 TIM       0.062450
     23 H5A         -0.3600    -0.9100     0.4650 h1         1 TIM       0.062450
     24 H6           1.8920     0.8860    -0.5080 h1         1 TIM       0.057700
     25 H6A          1.8920    -0.8860    -0.5080 h1         1 TIM       0.057700
     26 H2           1.9230     1.0350     3.1320 h1         1 TIM       0.057700
     27 H2A          1.9100     2.0350     1.6680 h1         1 TIM       0.057700
     28 H3          -0.3420     0.2350     2.6340 h1         1 TIM       0.062450
     29 H3A         -0.3280     2.0070     2.6720 h1         1 TIM       0.062450
     30 H13         -3.4510     3.7080     3.4180 h1         1 TIM       0.059700
     31 H13A        -3.3810     4.7020     1.9560 h1         1 TIM       0.059700
     32 H14         -1.2620     4.6950     4.1360 h1         1 TIM       0.033700
     33 HO15        -0.2140     5.8250     2.6980 ho         1 TIM       0.407000
     34 H16         -3.4600     6.7050     3.5250 h1         1 TIM       0.046700
     35 H16A        -3.4030     5.6390     4.9350 h1         1 TIM       0.046700
     36 HN17        -1.3510     6.6860     5.5490 hn         1 TIM       0.347800
     37 H19         -3.9830     8.0550     7.4630 hc         1 TIM       0.040033
     38 H19A        -3.0280     6.5950     7.1720 hc         1 TIM       0.040033
     39 H19B        -4.4810     6.9070     6.2120 hc         1 TIM       0.040033
     40 H20         -1.2550     9.6260     5.6700 hc         1 TIM       0.040033
     41 H20A        -1.2550     8.5930     7.1060 hc         1 TIM       0.040033
     42 H20B        -2.4880     9.8480     6.9190 hc         1 TIM       0.040033
     43 H21         -4.0680     9.7760     5.1880 hc         1 TIM       0.040033
     44 H21A        -3.1640     9.1250     3.8140 hc         1 TIM       0.040033
     45 H21B        -4.5540     8.2410     4.4560 hc         1 TIM       0.040033
@<TRIPOS>BOND
     1     1     2 1
     2     1     6 1
     3     1    22 1
     4     1    23 1
     5     2     3 1
     6     2    24 1
     7     2    25 1
     8     3     4 1
     9     4     5 1
    10     4    26 1
    11     4    27 1
    12     5     6 1
    13     5    28 1
    14     5    29 1
    15     6     7 1
    16     7     8 2
    17     7    11 1
    18     8     9 1
    19     9    10 1
    20    10    11 2
    21    11    12 1
    22    12    13 1
    23    13    14 1
    24    13    30 1
    25    13    31 1
    26    14    15 1
    27    14    16 1
    28    14    32 1
    29    15    33 1
    30    16    17 1
    31    16    34 1
    32    16    35 1
    33    17    18 1
    34    17    36 1
    35    18    19 1
    36    18    20 1
    37    18    21 1
    38    19    37 1
    39    19    38 1
    40    19    39 1
    41    20    40 1
    42    20    41 1
    43    20    42 1
    44    21    43 1
    45    21    44 1
    46    21    45 1
@<TRIPOS>SUBSTRUCTURE
     1 TIM         1 TEMP              0 ****  ****    0 ROOT
