@<TRIPOS>MOLECULE
TIN
   83    85     1     0     0
SMALL
bcc


@<TRIPOS>ATOM
      1 C1           0.0000     0.0000     0.0000 c3         1 TIN      -0.023900
      2 C2           1.5310     0.0000     0.0000 c3         1 TIN      -0.027900
      3 C3           2.0410     0.0000     1.4420 c3         1 TIN      -0.049700
      4 C4           1.5320    -1.2490     2.1630 c3         1 TIN      -0.027900
      5 C5           0.0010    -1.2490     2.1630 c3         1 TIN      -0.023900
      6 C6          -0.5090    -1.2480     0.7210 c3         1 TIN      -0.025400
      7 C17          3.5710    -0.0010     1.4420 c3         1 TIN      -0.037400
      8 C19          4.0820    -0.0000     2.8830 c3         1 TIN       0.116800
      9 N2           5.5490    -0.0000     2.8830 n3         1 TIN      -0.505600
     10 C25          5.9710    -1.2880     2.3160 c3         1 TIN       0.118800
     11 C26          7.4870    -1.2800     2.1040 c3         1 TIN      -0.038400
     12 C29          7.9080    -2.5670     1.3920 c3         1 TIN      -0.027400
     13 C32          9.4340    -2.6150     1.2890 c3         1 TIN       0.005900
     14 C38          5.9720    -0.0010     4.2900 c3         1 TIN       0.184100
     15 C40          5.9230     1.4050     4.8290 ca         1 TIN      -0.090300
     16 C43          4.7930     1.8470     5.4970 ca         1 TIN      -0.121000
     17 C44          4.7350     3.1320     5.9960 ca         1 TIN      -0.084000
     18 C45          5.8180     3.9940     5.8290 ca         1 TIN      -0.116600
     19 C46          6.9650     3.5440     5.1510 cp         1 TIN       0.032000
     20 C47          7.0070     2.2420     4.6600 ca         1 TIN      -0.093000
     21 C51          8.1240     4.4480     4.9660 cp         1 TIN      -0.020000
     22 C52          8.8980     4.8270     6.0620 ca         1 TIN      -0.005300
     23 C53          9.9800     5.6650     5.8820 ca         1 TIN      -0.104000
     24 C54         10.2900     6.1380     4.6200 ca         1 TIN      -0.103000
     25 C55          9.5220     5.7700     3.5290 ca         1 TIN      -0.129000
     26 C56          8.4420     4.9280     3.6960 ca         1 TIN      -0.090000
     27 C65          5.7610     5.3700     6.3610 c          1 TIN       0.568700
     28 C66          4.6060     7.1610     7.5390 c3         1 TIN      -0.105300
     29 O67          6.7090     6.1180     6.2140 o          1 TIN      -0.656100
     30 C68          5.1360     7.1760     8.9490 c          1 TIN       0.972600
     31 O69          5.0030     6.0920     9.7280 o          1 TIN      -0.883300
     32 O70          5.6820     8.1650     9.3790 o          1 TIN      -0.883300
     33 N1           4.6620     5.7960     7.0110 ns         1 TIN      -0.120900
     34 C74          3.1560     7.6510     7.5350 c3         1 TIN      -0.007400
     35 C76          2.6170     7.6350     6.1030 c3         1 TIN       0.081700
     36 S1           0.8980     8.2150     6.0980 ss         1 TIN      -0.420200
     37 C82          0.5310     8.0950     4.3250 c3         1 TIN       0.101000
     38 C7           8.5620     4.3130     7.4370 c3         1 TIN       0.034200
     39 HC11        -0.3600     0.8840     0.5130 hc         1 TIN       0.012200
     40 HC12        -0.3600    -0.0030    -1.0220 hc         1 TIN       0.012200
     41 HC21         1.8910    -0.8860    -0.5090 hc         1 TIN       0.016200
     42 HC22         1.8910     0.8860    -0.5090 hc         1 TIN       0.016200
     43 HC3          1.6760     0.8830     1.9530 hc         1 TIN       0.035700
     44 HC41         1.8910    -2.1330     1.6500 hc         1 TIN       0.016200
     45 HC42         1.8910    -1.2470     3.1850 hc         1 TIN       0.016200
     46 HC51        -0.3590    -2.1360     2.6710 hc         1 TIN       0.012200
     47 HC52        -0.3590    -0.3640     2.6720 hc         1 TIN       0.012200
     48 HC61        -0.1460    -2.1320     0.2100 hc         1 TIN       0.009700
     49 HC62        -1.5920    -1.2460     0.7230 hc         1 TIN       0.009700
     50 H171         3.9310    -0.8850     0.9310 hc         1 TIN       0.025200
     51 H172         3.9320     0.8840     0.9310 hc         1 TIN       0.025200
     52 H191         3.7210    -0.8850     3.3950 h1         1 TIN       0.023700
     53 H192         3.7210     0.8840     3.3940 h1         1 TIN       0.023700
     54 H251         5.7060    -2.0870     2.9970 h1         1 TIN       0.014700
     55 H252         5.4750    -1.4440     1.3660 h1         1 TIN       0.014700
     56 H261         7.9860    -1.2180     3.0630 hc         1 TIN       0.026700
     57 H262         7.7620    -0.4250     1.4970 hc         1 TIN       0.026700
     58 H291         7.5570    -3.4230     1.9560 hc         1 TIN       0.008700
     59 H292         7.4780    -2.5880     0.3980 hc         1 TIN       0.008700
     60 H321         9.7320    -3.5100     0.7550 hc         1 TIN      -0.000300
     61 H322         9.8630    -2.6290     2.2840 hc         1 TIN      -0.000300
     62 H323         9.7880    -1.7420     0.7550 hc         1 TIN      -0.000300
     63 H381         6.9840    -0.3800     4.3630 h1         1 TIN       0.018200
     64 H382         5.3070    -0.6320     4.8670 h1         1 TIN       0.018200
     65 HC43         3.9500     1.1800     5.6280 ha         1 TIN       0.099000
     66 HC44         3.8480     3.4710     6.5170 ha         1 TIN       0.113000
     67 HC47         7.8880     1.8890     4.1370 ha         1 TIN       0.110000
     68 HC53        10.5830     5.9590     6.7320 ha         1 TIN       0.102000
     69 HC54        11.1380     6.7980     4.4840 ha         1 TIN       0.088000
     70 HC55         9.7700     6.1430     2.5430 ha         1 TIN       0.089000
     71 HC56         7.8420     4.6400     2.8410 ha         1 TIN       0.096000
     72 HC66         5.2090     7.8130     6.9190 h1         1 TIN       0.059700
     73 HN1          3.9050     5.1630     7.1790 hn         1 TIN       0.167500
     74 H741         3.1140     8.6600     7.9250 hc         1 TIN       0.039700
     75 H742         2.5520     6.9990     8.1550 hc         1 TIN       0.039700
     76 H761         2.6580     6.6250     5.7130 h1         1 TIN       0.032200
     77 H762         3.2210     8.2860     5.4830 h1         1 TIN       0.032200
     78 H821        -0.4700     8.4660     4.1380 h1         1 TIN       0.024700
     79 H822         1.2460     8.6880     3.7670 h1         1 TIN       0.024700
     80 H823         0.5970     7.0600     4.0120 h1         1 TIN       0.024700
     81 HC71         8.4740     5.1470     8.1220 hc         1 TIN       0.020033
     82 HC72         7.6240     3.7730     7.4010 hc         1 TIN       0.020033
     83 HC73         9.3480     3.6490     7.7760 hc         1 TIN       0.020033
@<TRIPOS>BOND
     1     1     2 1   
     2     1     6 1   
     3     1    39 1   
     4     1    40 1   
     5     2     3 1   
     6     2    41 1   
     7     2    42 1   
     8     3     4 1   
     9     3     7 1   
    10     3    43 1   
    11     4     5 1   
    12     4    44 1   
    13     4    45 1   
    14     5     6 1   
    15     5    46 1   
    16     5    47 1   
    17     6    48 1   
    18     6    49 1   
    19     7     8 1   
    20     7    50 1   
    21     7    51 1   
    22     8     9 1   
    23     8    52 1   
    24     8    53 1   
    25     9    10 1   
    26     9    14 1   
    27    10    11 1   
    28    10    54 1   
    29    10    55 1   
    30    11    12 1   
    31    11    56 1   
    32    11    57 1   
    33    12    13 1   
    34    12    58 1   
    35    12    59 1   
    36    13    60 1   
    37    13    61 1   
    38    13    62 1   
    39    14    15 1   
    40    14    63 1   
    41    14    64 1   
    42    15    16 ar  
    43    15    20 ar  
    44    16    17 ar  
    45    16    65 1   
    46    17    18 ar  
    47    17    66 1   
    48    18    19 ar  
    49    18    27 1   
    50    19    20 ar  
    51    19    21 1   
    52    20    67 1   
    53    21    22 ar  
    54    21    26 ar  
    55    22    23 ar  
    56    22    38 1   
    57    23    24 ar  
    58    23    68 1   
    59    24    25 ar  
    60    24    69 1   
    61    25    26 ar  
    62    25    70 1   
    63    26    71 1   
    64    27    29 2   
    65    27    33 1   
    66    28    30 1   
    67    28    33 1   
    68    28    34 1   
    69    28    72 1   
    70    30    31 1   
    71    30    32 1   
    72    33    73 1   
    73    34    35 1   
    74    34    74 1   
    75    34    75 1   
    76    35    36 1   
    77    35    76 1   
    78    35    77 1   
    79    36    37 1   
    80    37    78 1   
    81    37    79 1   
    82    37    80 1   
    83    38    81 1   
    84    38    82 1   
    85    38    83 1   
@<TRIPOS>SUBSTRUCTURE
     1 TIN         1 TEMP              0 ****  ****    0 ROOT
