@<TRIPOS>MOLECULE
TIO
   31    31     1     0     0
SMALL
bcc


@<TRIPOS>ATOM
      1 SG1          0.0000     0.0000     0.0000 sh         1 TIO      -0.435900
      2 CB1          1.8130     0.0000     0.0000 c3         1 TIO       0.128700
      3 CA1          2.3240     0.0000     1.4430 c3         1 TIO      -0.098700
      4 C            3.8230     0.1410     1.4450 c          1 TIO       0.543100
      5 O            4.5100    -0.6800     0.8760 o          1 TIO      -0.701100
      6 CB2          1.9340    -1.3140     2.1210 c3         1 TIO       0.028900
      7 CG2          2.3480    -1.2730     3.5690 ca         1 TIO      -0.092300
      8 CD1          1.5040    -0.7250     4.5150 ca         1 TIO      -0.094500
      9 CD2          3.5710    -1.7910     3.9520 ca         1 TIO      -0.094500
     10 CE1          1.8840    -0.6870     5.8430 ca         1 TIO      -0.100500
     11 CE2          3.9530    -1.7500     5.2800 ca         1 TIO      -0.100500
     12 CZ           3.1090    -1.2010     6.2250 ca         1 TIO      -0.106000
     13 N            4.4020     1.1810     2.0770 ns         1 TIO      -0.128900
     14 CA2          5.8590     1.3190     2.0790 c3         1 TIO      -0.078000
     15 C1           6.2470     2.5540     2.8500 c          1 TIO       0.972600
     16 O1           5.3920     3.2490     3.3450 o          1 TIO      -0.890300
     17 OH           7.5410     2.8830     2.9840 o          1 TIO      -0.890300
     18 HG          -0.4430     0.3590    -1.1990 hs         1 TIO       0.174800
     19 HB11         2.1740     0.8840    -0.5110 h1         1 TIO       0.041700
     20 HB12         2.1740    -0.8840    -0.5110 h1         1 TIO       0.041700
     21 HA11         1.8830     0.8290     1.9820 hc         1 TIO       0.048700
     22 HB21         0.8610    -1.4500     2.0560 hc         1 TIO       0.033700
     23 HB22         2.4330    -2.1380     1.6260 hc         1 TIO       0.033700
     24 HD1          0.5440    -0.3220     4.2150 ha         1 TIO       0.113500
     25 HD2          4.2340    -2.2220     3.2110 ha         1 TIO       0.113500
     26 HE1          1.2220    -0.2570     6.5850 ha         1 TIO       0.097500
     27 HE2          4.9120    -2.1540     5.5810 ha         1 TIO       0.097500
     28 HZ           3.4080    -1.1700     7.2660 ha         1 TIO       0.095000
     29 HN           3.8340     1.8710     2.5260 hn         1 TIO       0.198500
     30 HA21         6.3040     0.4480     2.5460 h1         1 TIO       0.024700
     31 HA22         6.2150     1.4030     1.0600 h1         1 TIO       0.024700
@<TRIPOS>BOND
     1     1     2 1   
     2     1    18 1   
     3     2     3 1   
     4     2    19 1   
     5     2    20 1   
     6     3     4 1   
     7     3     6 1   
     8     3    21 1   
     9     4     5 2   
    10     4    13 1   
    11     6     7 1   
    12     6    22 1   
    13     6    23 1   
    14     7     8 ar  
    15     7     9 ar  
    16     8    10 ar  
    17     8    24 1   
    18     9    11 ar  
    19     9    25 1   
    20    10    12 ar  
    21    10    26 1   
    22    11    12 ar  
    23    11    27 1   
    24    12    28 1   
    25    13    14 1   
    26    13    29 1   
    27    14    15 1   
    28    14    30 1   
    29    14    31 1   
    30    15    16 1   
    31    15    17 1   
@<TRIPOS>SUBSTRUCTURE
     1 TIO         1 TEMP              0 ****  ****    0 ROOT
