@<TRIPOS>MOLECULE
TIP
   62    63     1     0     0
SMALL
bcc


@<TRIPOS>ATOM
      1 C2          0.1100    0.1280   -0.1380 c3        1 TIP     -0.077400
      2 C5          1.5360    1.3410    2.0930 c2        1 TIP     -0.099400
      3 C4          0.1210    1.7740    1.7880 c3        1 TIP     -0.008800
      4 C6          2.3140    2.0480    2.9290 c2        1 TIP     -0.177200
      5 C7          3.6470    1.6000    3.3900 c3        1 TIP     -0.044200
      6 PA          7.1510   -7.4860    3.5780 p5        1 TIP      1.574800
      7 O1A         7.5060   -7.4840    2.1270 o         1 TIP     -0.933000
      8 O2A         6.0210   -8.3880    3.9520 o         1 TIP     -0.933000
      9 O3A         8.3240   -7.3780    4.5850 os        1 TIP     -0.799800
     10 PB          9.7000   -7.3070    5.7310 p5        1 TIP      1.459900
     11 O1B        10.3370   -8.6600    5.5650 o         1 TIP     -0.958833
     12 O2B        10.5310   -6.1550    5.2370 o         1 TIP     -0.958833
     13 O3B         9.0530   -7.0760    7.0690 o         1 TIP     -0.958833
     14 O           6.3890   -5.9440    3.7210 os        1 TIP     -0.560200
     15 C15         5.3170   -5.8840    2.8550 c3        1 TIP      0.193600
     16 C14         4.6610   -4.5470    2.9360 c2        1 TIP     -0.047200
     17 C13         3.6110   -4.1300    2.2040 c2        1 TIP     -0.287400
     18 C16         2.9380   -4.9690    1.1890 c3        1 TIP     -0.017900
     19 C12         3.0540   -2.7570    2.3780 c3        1 TIP     -0.010200
     20 C11         3.7780   -1.7640    1.4880 c3        1 TIP     -0.078400
     21 C9          3.4770   -0.2810    1.7430 c3        1 TIP     -0.033000
     22 C20         4.3190    0.5260    0.7580 c3        1 TIP     -0.086100
     23 C10         1.9740    0.0170    1.5330 c3        1 TIP     -0.019500
     24 C1          1.5870   -0.1230    0.0660 c3        1 TIP     -0.071400
     25 C3         -0.2500    1.5200    0.3240 c3        1 TIP     -0.062400
     26 C18        -0.8270    0.9990    2.7020 c3        1 TIP     -0.083600
     27 C19        -0.0890    3.2650    2.0470 c3        1 TIP     -0.083600
     28 C8          3.8320    0.1010    3.1910 c3        1 TIP     -0.054700
     29 C17         5.2180   -0.3180    3.6290 c3        1 TIP     -0.097100
     30 H1         -0.1450    0.0180   -1.2250 hc        1 TIP      0.033700
     31 H2         -0.4890   -0.6340    0.4240 hc        1 TIP      0.033700
     32 H3          1.9890    3.0130    3.3500 ha        1 TIP      0.101000
     33 H4          4.4500    2.1620    2.8400 hc        1 TIP      0.039700
     34 H5          3.7640    1.8440    4.4800 hc        1 TIP      0.039700
     35 H9          5.6750   -6.0740    1.7980 h1        1 TIP      0.042700
     36 H10         4.5720   -6.6940    3.1190 h1        1 TIP      0.042700
     37 H11         5.1210   -3.8700    3.6800 ha        1 TIP      0.122000
     38 H12         2.8670   -4.4250    0.2120 hc        1 TIP      0.015367
     39 H13         1.8960   -5.2200    1.5140 hc        1 TIP      0.015367
     40 H14         3.4970   -5.9240    1.0260 hc        1 TIP      0.015367
     41 H15         1.9580   -2.7600    2.1290 hc        1 TIP      0.016700
     42 H16         3.1510   -2.4460    3.4520 hc        1 TIP      0.016700
     43 H17         4.8850   -1.9190    1.6110 hc        1 TIP      0.049700
     44 H18         3.5410   -2.0060    0.4180 hc        1 TIP      0.049700
     45 H19         4.2500    0.0860   -0.2660 hc        1 TIP      0.028700
     46 H20         5.3920    0.5150    1.0630 hc        1 TIP      0.028700
     47 H21         3.9680    1.5850    0.7150 hc        1 TIP      0.028700
     48 H22         1.4030   -0.7690    2.1140 hc        1 TIP      0.066700
     49 H23         1.8420   -1.1570   -0.2850 hc        1 TIP      0.048700
     50 H24         2.1690    0.6050   -0.5570 hc        1 TIP      0.048700
     51 H25         0.2850    2.2700   -0.3170 hc        1 TIP      0.026700
     52 H26        -1.3510    1.6890    0.1950 hc        1 TIP      0.026700
     53 H27        -0.5800    1.2010    3.7710 hc        1 TIP      0.030367
     54 H28        -0.7350   -0.0990    2.5210 hc        1 TIP      0.030367
     55 H29        -1.8820    1.3080    2.5110 hc        1 TIP      0.030367
     56 H30        -1.0870    3.5810    1.6570 hc        1 TIP      0.030367
     57 H31        -0.0600    3.4860    3.1410 hc        1 TIP      0.030367
     58 H32         0.7000    3.8650    1.5360 hc        1 TIP      0.030367
     59 H33         3.0910   -0.4240    3.8620 hc        1 TIP      0.054700
     60 H34         5.3040   -1.4340    3.6550 hc        1 TIP      0.046700
     61 H35         5.4210    0.0680    4.6580 hc        1 TIP      0.046700
     62 H36         6.0060    0.0810    2.9470 hc        1 TIP      0.046700
@<TRIPOS>BOND
     1    1   24 1   
     2    1   25 1   
     3    1   30 1   
     4    1   31 1   
     5    2    3 1   
     6    2    4 2   
     7    2   23 1   
     8    3   25 1   
     9    3   26 1   
    10    3   27 1   
    11    4    5 1   
    12    4   32 1   
    13    5   28 1   
    14    5   33 1   
    15    5   34 1   
    16    6    7 1   
    17    6    8 1   
    18    6    9 1   
    19    6   14 1   
    20    9   10 1   
    21   10   11 1   
    22   10   12 1   
    23   10   13 1   
    24   14   15 1   
    25   15   16 1   
    26   15   35 1   
    27   15   36 1   
    28   16   17 2   
    29   16   37 1   
    30   17   18 1   
    31   17   19 1   
    32   18   38 1   
    33   18   39 1   
    34   18   40 1   
    35   19   20 1   
    36   19   41 1   
    37   19   42 1   
    38   20   21 1   
    39   20   43 1   
    40   20   44 1   
    41   21   22 1   
    42   21   23 1   
    43   21   28 1   
    44   22   45 1   
    45   22   46 1   
    46   22   47 1   
    47   23   24 1   
    48   23   48 1   
    49   24   49 1   
    50   24   50 1   
    51   25   51 1   
    52   25   52 1   
    53   26   53 1   
    54   26   54 1   
    55   26   55 1   
    56   27   56 1   
    57   27   57 1   
    58   27   58 1   
    59   28   29 1   
    60   28   59 1   
    61   29   60 1   
    62   29   61 1   
    63   29   62 1   
@<TRIPOS>SUBSTRUCTURE
     1 TIP         1 TEMP              0 ****  ****    0 ROOT
