@<TRIPOS>MOLECULE
molecule
   62    63     1     0     0
SMALL
bcc


@<TRIPOS>ATOM
      1 C2           0.0000     0.0000     0.0000 c3         1 TIP      -0.083400
      2 C5           1.4260     1.1500     2.1870 c2         1 TIP      -0.100400
      3 C4          -0.0840     1.3100     2.1270 c3         1 TIP      -0.026800
      4 C6           2.1100     2.0160     2.8760 c2         1 TIP      -0.186200
      5 C7           3.6060     1.9680     3.0020 c3         1 TIP      -0.041200
      6 PA           6.8290    -7.4420     4.0400 p5         1 TIP       1.407800
      7 O1A          7.9340    -7.6950     3.0890 o          1 TIP      -0.853500
      8 O2A          5.6550    -8.5170     3.7960 o          1 TIP      -0.853500
      9 O3A          7.3760    -7.5760     5.5480 os         1 TIP      -0.700800
     10 PB           8.3960    -8.5810     6.2820 p5         1 TIP       1.299900
     11 O1B          8.1760    -9.9580     5.7840 o          1 TIP      -0.945500
     12 O2B          9.9100    -8.1330     5.9690 o          1 TIP      -0.945500
     13 O3B          8.1420    -8.5390     7.8710 o          1 TIP      -0.945500
     14 O            6.2520    -5.9560     3.8080 os         1 TIP      -0.541200
     15 C15          5.7880    -5.4910     2.5400 c3         1 TIP       0.237600
     16 C14          5.3180    -4.0650     2.6690 c2         1 TIP      -0.469200
     17 C13          4.1870    -3.6960     2.1200 c2         1 TIP      -0.065400
     18 C16          3.4220    -4.6600     1.2510 c3         1 TIP      -0.110900
     19 C12          3.6520    -2.3080     2.3580 c3         1 TIP      -0.031200
     20 C11          4.0860    -1.3900     1.2120 c3         1 TIP      -0.071400
     21 C9           3.5570     0.0230     1.4620 c3         1 TIP      -0.052000
     22 C20          4.0590     0.9530     0.3550 c3         1 TIP      -0.088100
     23 C10          2.0380     0.0000     1.4440 c3         1 TIP      -0.020500
     24 C1           1.5300     0.0000     0.0000 c3         1 TIP      -0.072400
     25 C3          -0.5140     1.2830     0.6580 c3         1 TIP      -0.065400
     26 C18         -0.7550     0.1610     2.8820 c3         1 TIP      -0.081100
     27 C19         -0.4850     2.6450     2.7580 c3         1 TIP      -0.081100
     28 C8           4.0750     0.5220     2.8100 c3         1 TIP      -0.058700
     29 C17          5.6050     0.4710     2.8250 c3         1 TIP      -0.093100
     30 H1          -0.3590    -0.8580     0.5560 hc         1 TIP       0.038200
     31 H2          -0.3590    -0.0490    -1.0210 hc         1 TIP       0.038200
     32 H3           1.5750     2.8110     3.3820 ha         1 TIP       0.110000
     33 H4           4.0530     2.5970     2.2420 hc         1 TIP       0.040700
     34 H5           3.8970     2.3150     3.9850 hc         1 TIP       0.040700
     35 H9           6.5960    -5.5410     1.8200 h1         1 TIP       0.008700
     36 H10          4.9670    -6.1130     2.2050 h1         1 TIP       0.008700
     37 H11          5.8440    -4.4140     1.7890 ha         1 TIP       0.345000
     38 H12          2.5670    -4.1550     0.8170 hc         1 TIP       0.034700
     39 H13          3.0820    -5.4950     1.8500 hc         1 TIP       0.034700
     40 H14          4.0660    -5.0220     0.4590 hc         1 TIP       0.034700
     41 H15          2.5700    -2.3410     2.4040 hc         1 TIP       0.045700
     42 H16          4.0410    -1.9260     3.2930 hc         1 TIP       0.045700
     43 H17          5.1680    -1.3670     1.1580 hc         1 TIP       0.045700
     44 H18          3.6860    -1.7650     0.2770 hc         1 TIP       0.045700
     45 H19          5.0880     1.2280     0.5530 hc         1 TIP       0.028700
     46 H20          3.9990     0.4430    -0.5990 hc         1 TIP       0.028700
     47 H21          3.4460     1.8450     0.3270 hc         1 TIP       0.028700
     48 H22          1.7110    -0.9180     1.9170 hc         1 TIP       0.077700
     49 H23          1.8900    -0.8860    -0.5080 hc         1 TIP       0.045200
     50 H24          1.8900     0.8860    -0.5090 hc         1 TIP       0.045200
     51 H25         -1.5960     1.3080     0.5990 hc         1 TIP       0.031200
     52 H26         -0.0990     2.1420     0.1450 hc         1 TIP       0.031200
     53 H27         -0.4430     0.1790     3.9190 hc         1 TIP       0.033867
     54 H28         -0.4660    -0.7820     2.4340 hc         1 TIP       0.033867
     55 H29         -1.8310     0.2720     2.8260 hc         1 TIP       0.033867
     56 H30         -0.2660     2.6240     3.8180 hc         1 TIP       0.033867
     57 H31          0.0720     3.4480     2.2900 hc         1 TIP       0.033867
     58 H32         -1.5460     2.8090     2.6110 hc         1 TIP       0.033867
     59 H33          3.6760    -0.0980     3.6040 hc         1 TIP       0.074700
     60 H34          5.9650     0.1330     1.8610 hc         1 TIP       0.041700
     61 H35          5.9350    -0.2160     3.5950 hc         1 TIP       0.041700
     62 H36          5.9970     1.4600     3.0310 hc         1 TIP       0.041700
@<TRIPOS>BOND
     1     7     6 1
     2    11    10 1
     3     6     8 1
     4     6    14 1
     5     6     9 1
     6    13    10 1
     7    10     9 1
     8    10    12 1
     9    14    15 1
    10    29    28 1
    11    15    16 1
    12     5    28 1
    13     5     4 1
    14    16    17 2
    15    28    21 1
    16    22    21 1
    17     4     2 2
    18    17    18 1
    19    17    19 1
    20    21    20 1
    21    21    23 1
    22    20    19 1
    23     2    23 1
    24     2     3 1
    25    23    24 1
    26    27     3 1
    27    26     3 1
    28     3    25 1
    29    24     1 1
    30    25     1 1
    31     1    30 1
    32     1    31 1
    33     4    32 1
    34     5    33 1
    35     5    34 1
    36    15    35 1
    37    15    36 1
    38    16    37 1
    39    18    38 1
    40    18    39 1
    41    18    40 1
    42    19    41 1
    43    19    42 1
    44    20    43 1
    45    20    44 1
    46    22    45 1
    47    22    46 1
    48    22    47 1
    49    23    48 1
    50    24    49 1
    51    24    50 1
    52    25    51 1
    53    25    52 1
    54    26    53 1
    55    26    54 1
    56    26    55 1
    57    27    56 1
    58    27    57 1
    59    27    58 1
    60    28    59 1
    61    29    60 1
    62    29    61 1
    63    29    62 1
@<TRIPOS>SUBSTRUCTURE
     1 TIP         1 TEMP              0 ****  ****    0 ROOT
