@<TRIPOS>MOLECULE
TIQ
   64    68     1     0     0
SMALL
bcc


@<TRIPOS>ATOM
      1 C1           0.0000     0.0000     0.0000 c3         1 TIQ       0.006900
      2 C2           1.5300     0.0000     0.0000 c3         1 TIQ      -0.013400
      3 C3           2.0400     0.0000     1.4420 c3         1 TIQ       0.080700
      4 S4           3.8510     0.0000     1.4420 ss         1 TIQ      -0.374400
      5 C5           4.1560    -0.0000     3.1770 ca         1 TIQ       0.827300
      6 N6           3.1230    -0.0010     4.0110 nb         1 TIQ      -0.767000
      7 C7           3.3000    -0.0020     5.3260 ca         1 TIQ       0.633200
      8 N8           2.2170    -0.0030     6.1840 nu         1 TIQ      -0.398900
      9 C9           0.8550    -0.0030     5.6440 cx         1 TIQ       0.063500
     10 C11         -0.1640     0.9330     6.2980 cx         1 TIQ      -0.090400
     11 C12         -0.2550    -0.5780     6.5260 cx         1 TIQ      -0.063400
     12 C14         -1.3740    -1.3200     5.8430 ca         1 TIQ      -0.036300
     13 C15         -1.6130    -2.6460     6.1510 ca         1 TIQ      -0.078000
     14 C16         -2.6400    -3.3280     5.5250 ca         1 TIQ      -0.104000
     15 C17         -3.4290    -2.6830     4.5880 ca         1 TIQ       0.078900
     16 F18         -4.4320    -3.3490     3.9760 f          1 TIQ      -0.114900
     17 C19         -3.1880    -1.3530     4.2790 ca         1 TIQ       0.087900
     18 F20         -3.9580    -0.7220     3.3640 f          1 TIQ      -0.115900
     19 C21         -2.1630    -0.6710     4.9120 ca         1 TIQ      -0.124000
     20 C22          4.6180    -0.0020     5.8290 ca         1 TIQ      -0.322200
     21 N23          5.1460    -0.0030     7.0650 nc         1 TIQ      -0.106400
     22 N24          6.4330    -0.0010     6.9970 nd         1 TIQ      -0.347400
     23 N25          6.8270    -0.0010     5.6510 na         1 TIQ       0.384200
     24 C26          8.2000    -0.0010     5.1410 c3         1 TIQ      -0.052000
     25 C28          8.9710    -1.2390     5.6620 c3         1 TIQ      -0.037400
     26 C29         10.4500    -0.7840     5.5680 c3         1 TIQ       0.170100
     27 O31         11.2620    -1.5340     6.4720 os         1 TIQ      -0.393600
     28 C32         12.6110    -1.7100     6.0340 c3         1 TIQ       0.202400
     29 C33         13.3840    -2.5220     7.0740 c3         1 TIQ       0.220400
     30 O34         12.8380    -3.8400     7.1520 oh         1 TIQ      -0.582800
     31 C35         10.4160     0.7030     5.9770 c3         1 TIQ       0.143100
     32 O37         11.3510     1.4480     5.1940 oh         1 TIQ      -0.561800
     33 C38          8.9850     1.2010     5.7070 c3         1 TIQ       0.151100
     34 O40          9.0090     2.2630     4.7510 oh         1 TIQ      -0.554800
     35 C41          5.6790    -0.0010     4.9080 ca         1 TIQ       0.315800
     36 N42          5.4090    -0.0060     3.6050 nb         1 TIQ      -0.651000
     37 H11C        -0.3610     0.0160    -1.0210 hc         1 TIQ       0.003700
     38 H12C        -0.3610    -0.8920     0.4970 hc         1 TIQ       0.003700
     39 H13C        -0.3610     0.8770     0.5240 hc         1 TIQ       0.003700
     40 H21C         1.8910    -0.8850    -0.5110 hc         1 TIQ       0.024700
     41 H22C         1.8910     0.8850    -0.5110 hc         1 TIQ       0.024700
     42 H31C         1.6790     0.8840     1.9520 h1         1 TIQ       0.047200
     43 H32C         1.6790    -0.8850     1.9520 h1         1 TIQ       0.047200
     44 H8           2.3630    -0.0190     7.1740 hn         1 TIQ       0.306800
     45 H9           0.7140    -0.1550     4.5810 h1         1 TIQ       0.102700
     46 H111         0.2030     1.5110     7.1370 hc         1 TIQ       0.058200
     47 H112        -0.9090     1.3500     5.6320 hc         1 TIQ       0.058200
     48 H12          0.0700    -0.9090     7.5050 hc         1 TIQ       0.066700
     49 H15         -0.9950    -3.1500     6.8840 ha         1 TIQ       0.115000
     50 H21         -1.9740     0.3680     4.6710 ha         1 TIQ       0.134000
     51 H16         -2.8260    -4.3680     5.7670 ha         1 TIQ       0.125000
     52 H26          8.2080     0.0200     4.0580 h1         1 TIQ       0.088700
     53 H281         8.7020    -1.4520     6.6890 hc         1 TIQ       0.043200
     54 H282         8.7940    -2.0960     5.0240 hc         1 TIQ       0.043200
     55 H38          8.5300     1.5370     6.6310 h1         1 TIQ       0.024700
     56 H29         10.8110    -0.8860     4.5520 h1         1 TIQ       0.036700
     57 H35         10.6470     0.8000     7.0310 h1         1 TIQ       0.022700
     58 H321        12.6180    -2.2360     5.0870 h1         1 TIQ       0.001700
     59 H322        13.0800    -0.7410     5.9110 h1         1 TIQ       0.001700
     60 H331        14.4270    -2.5800     6.7850 h1         1 TIQ      -0.010300
     61 H332        13.3040    -2.0400     8.0410 h1         1 TIQ      -0.010300
     62 H34         13.3770    -4.3710     7.7140 ho         1 TIQ       0.387000
     63 H37         11.7960     2.0710     5.7440 ho         1 TIQ       0.386000
     64 H40          8.6200     3.0340     5.1280 ho         1 TIQ       0.386000
@<TRIPOS>BOND
     1     1     2 1   
     2     1    37 1   
     3     1    38 1   
     4     1    39 1   
     5     2     3 1   
     6     2    40 1   
     7     2    41 1   
     8     3     4 1   
     9     3    42 1   
    10     3    43 1   
    11     4     5 1   
    12     5     6 ar  
    13     5    36 ar  
    14     6     7 ar  
    15     7     8 1   
    16     7    20 ar  
    17     8     9 1   
    18     8    44 1   
    19     9    10 1   
    20     9    11 1   
    21     9    45 1   
    22    10    11 1   
    23    10    46 1   
    24    10    47 1   
    25    11    12 1   
    26    11    48 1   
    27    12    13 ar  
    28    12    19 ar  
    29    13    14 ar  
    30    13    49 1   
    31    14    15 ar  
    32    14    51 1   
    33    15    16 1   
    34    15    17 ar  
    35    17    18 1   
    36    17    19 ar  
    37    19    50 1   
    38    20    21 1   
    39    20    35 ar  
    40    21    22 2   
    41    22    23 1   
    42    23    24 1   
    43    23    35 1   
    44    24    25 1   
    45    24    33 1   
    46    24    52 1   
    47    25    26 1   
    48    25    53 1   
    49    25    54 1   
    50    26    27 1   
    51    26    31 1   
    52    26    56 1   
    53    27    28 1   
    54    28    29 1   
    55    28    58 1   
    56    28    59 1   
    57    29    30 1   
    58    29    60 1   
    59    29    61 1   
    60    30    62 1   
    61    31    32 1   
    62    31    33 1   
    63    31    57 1   
    64    32    63 1   
    65    33    34 1   
    66    33    55 1   
    67    34    64 1   
    68    35    36 ar  
@<TRIPOS>SUBSTRUCTURE
     1 TIQ         1 TEMP              0 ****  ****    0 ROOT
