@<TRIPOS>MOLECULE
TIR
   58    62     1     0     0
SMALL
bcc


@<TRIPOS>ATOM
      1 N            0.0000     0.0000     0.0000 ns         1 TIR      -0.010000
      2 C1           1.4670     0.0000     0.0000 c3         1 TIR      -0.125000
      3 O1           3.0240     0.0010     1.8850 o          1 TIR      -0.350000
      4 C2           1.8890     0.0000     1.4520 c2         1 TIR       0.351000
      5 O2           2.8030    -1.2850    10.4530 os         1 TIR      -0.243000
      6 C3           0.6920    -0.0000     2.2020 c2         1 TIR      -0.512000
      7 O3           2.5250    -3.6020    10.5250 os         1 TIR      -0.261000
      8 C4           0.6000    -0.0020     3.6020 c3         1 TIR       0.352000
      9 O4           6.0930    -4.2320     9.9460 oh         1 TIR      -0.303000
     10 C5           1.7700    -0.0020     4.3850 c2         1 TIR      -0.108000
     11 O5          -0.6100    -0.0020     4.1990 oh         1 TIR      -0.242000
     12 C6           1.6840    -0.1140     5.7360 c2         1 TIR       0.058000
     13 O6          -1.6080    -0.0010     1.6000 o          1 TIR      -0.416000
     14 C7           2.8520     0.0010     6.5320 c3         1 TIR       0.054000
     15 C8           2.7680    -0.1090     7.8610 c2         1 TIR      -0.472000
     16 C9           4.0220    -0.1500     8.6950 c3         1 TIR      -0.117000
     17 C10          3.9750    -1.3630     9.6280 c3         1 TIR       0.099000
     18 C11          2.6670    -2.4210    11.3220 c3         1 TIR       0.270000
     19 C12          1.4530    -2.2480    12.2400 c3         1 TIR      -0.103000
     20 C13          3.6830    -3.8480     9.6960 c3         1 TIR       0.081000
     21 C14          3.8770    -2.6440     8.7960 c3         1 TIR      -0.157000
     22 C15          5.0670    -2.7780     7.8600 c3         1 TIR      -0.113000
     23 C16          4.8370    -4.2110    10.6080 c3         1 TIR       0.096000
     24 C17          4.9030    -3.3070    11.8070 c2         1 TIR      -0.161000
     25 C18          3.9320    -2.5110    12.1370 c2         1 TIR      -0.180000
     26 C19          4.0710    -1.6570    13.3700 c3         1 TIR      -0.064000
     27 C20          4.1240     1.1300     9.5270 c3         1 TIR      -0.145000
     28 C21          4.1880     0.2480     5.8800 c3         1 TIR      -0.101000
     29 C22         -0.4370    -0.0010     1.2700 c2         1 TIR       0.310000
     30 H11          1.8380     0.8890    -0.4950 h1         1 TIR       0.072500
     31 HO5         -0.9090     0.8860     4.3050 ho         1 TIR       0.241000
     32 H5           1.2760    -0.9200     4.0930 DU         1 TIR       0.084000
     33 H6           2.3550    -0.9500     5.8940 DU         1 TIR       0.107000
     34 H8           3.2700     0.8020     8.1620 ha         1 TIR       0.275000
     35 H9           4.8860    -0.2280     8.0460 hc         1 TIR       0.076000
     36 H10          4.8620    -1.3930    10.2500 h1         1 TIR       0.069000
     37 H112         1.4390    -1.2390    12.6330 hc         1 TIR       0.059333
     38 H212         1.5170    -2.9540    13.0590 hc         1 TIR       0.059333
     39 H312         0.5460    -2.4290    11.6770 hc         1 TIR       0.059333
     40 H13          3.4720    -4.7050     9.0680 h1         1 TIR       0.075000
     41 H14          2.9890    -2.5590     8.1820 hc         1 TIR       0.101000
     42 H115         5.8750    -2.1470     8.2100 hc         1 TIR       0.048333
     43 H215         4.7770    -2.4720     6.8610 hc         1 TIR       0.048333
     44 H315         5.3970    -3.8090     7.8400 hc         1 TIR       0.048333
     45 H16          4.6480    -5.2130    10.9740 h1         1 TIR       0.046000
     46 H17          5.7950    -3.3230    12.4220 ha         1 TIR       0.110000
     47 H119         3.4840    -0.7540    13.2510 hc         1 TIR       0.050667
     48 H219         5.1120    -1.3950    13.5120 hc         1 TIR       0.050667
     49 H319         3.7160    -2.2080    14.2320 hc         1 TIR       0.050667
     50 H120         4.7080     0.9360    10.4180 hc         1 TIR       0.060667
     51 H220         3.1310     1.4560     9.8100 hc         1 TIR       0.060667
     52 H320         4.6050     1.9030     8.9410 hc         1 TIR       0.060667
     53 H121         4.4420    -0.5940     5.2470 hc         1 TIR       0.075667
     54 H221         4.1360     1.1480     5.2800 hc         1 TIR       0.075667
     55 H321         4.9460     0.3670     6.6440 hc         1 TIR       0.075667
     56 HN          -0.5810     0.0010    -0.8150 hn         1 TIR       0.112000
     57 H12          1.8370    -0.8900    -0.4940 h1         1 TIR       0.072500
     58 HO4          6.5720    -5.0020    10.2040 ho         1 TIR       0.189000
@<TRIPOS>BOND
     1     1     2 1   
     2     1    29 1   
     3     1    56 1   
     4     2     4 1   
     5     2    30 1   
     6     2    57 1   
     7     3     4 1   
     8     4     6 1   
     9     5    17 1   
    10     5    18 1   
    11     6     8 1   
    12     6    29 1   
    13     7    18 1   
    14     7    20 1   
    15     8    10 1   
    16     8    11 1   
    17     8    32 1   
    18     9    23 1   
    19     9    58 1   
    20    10    12 1   
    21    10    32 1   
    22    11    31 1   
    23    12    14 1   
    24    12    33 1   
    25    13    29 1   
    26    14    15 1   
    27    14    28 1   
    28    14    33 1   
    29    15    16 1   
    30    15    34 1   
    31    16    17 1   
    32    16    27 1   
    33    16    35 1   
    34    17    21 1   
    35    17    36 1   
    36    18    19 1   
    37    18    25 1   
    38    19    37 1   
    39    19    38 1   
    40    19    39 1   
    41    20    21 1   
    42    20    23 1   
    43    20    40 1   
    44    21    22 1   
    45    21    41 1   
    46    22    42 1   
    47    22    43 1   
    48    22    44 1   
    49    23    24 1   
    50    23    45 1   
    51    24    25 1   
    52    24    46 1   
    53    25    26 1   
    54    26    47 1   
    55    26    48 1   
    56    26    49 1   
    57    27    50 1   
    58    27    51 1   
    59    27    52 1   
    60    28    53 1   
    61    28    54 1   
    62    28    55 1   
@<TRIPOS>SUBSTRUCTURE
     1 TIR         1 TEMP              0 ****  ****    0 ROOT
