@<TRIPOS>MOLECULE
molecule
   58    60     1     0     0
SMALL
bcc


@<TRIPOS>ATOM
      1 N            0.0000     0.0000     0.0000 ns         1 TIR      -0.589900
      2 C1           1.4670     0.0000     0.0000 c3         1 TIR      -0.008000
      3 O1           3.0240     0.0010     1.8850 o          1 TIR      -0.537100
      4 C2           1.8890     0.0000     1.4520 c          1 TIR       0.592300
      5 O2           2.8030    -1.2850    10.4530 os         1 TIR      -0.427600
      6 C3           0.6920    -0.0000     2.2020 ce         1 TIR      -0.392400
      7 O3           2.5250    -3.6020    10.5250 os         1 TIR      -0.417600
      8 C4           0.6000    -0.0020     3.6020 cf         1 TIR       0.310100
      9 O4           6.0930    -4.2320     9.9460 oh         1 TIR      -0.594800
     10 C5           1.7700    -0.0020     4.3850 cf         1 TIR      -0.235000
     11 O5          -0.6100    -0.0020     4.1990 oh         1 TIR      -0.510100
     12 C6           1.6840    -0.1140     5.7360 ce         1 TIR      -0.026000
     13 O6          -1.6080    -0.0010     1.6000 o          1 TIR      -0.631500
     14 C7           2.8520     0.0010     6.5320 ce         1 TIR      -0.142200
     15 C8           2.7680    -0.1090     7.8610 c2         1 TIR      -0.096200
     16 C9           4.0220    -0.1500     8.6950 c3         1 TIR      -0.045500
     17 C10          3.9750    -1.3630     9.6280 c3         1 TIR       0.149100
     18 C11          2.6670    -2.4210    11.3220 c3         1 TIR       0.381800
     19 C12          1.4530    -2.2480    12.2400 c3         1 TIR      -0.060100
     20 C13          3.6830    -3.8480     9.6960 c3         1 TIR       0.156100
     21 C14          3.8770    -2.6440     8.7960 c3         1 TIR      -0.121700
     22 C15          5.0670    -2.7780     7.8600 c3         1 TIR      -0.078100
     23 C16          4.8370    -4.2110    10.6080 c3         1 TIR       0.160300
     24 C17          4.9030    -3.3070    11.8070 c2         1 TIR      -0.181200
     25 C18          3.9320    -2.5110    12.1370 c2         1 TIR      -0.166400
     26 C19          4.0710    -1.6570    13.3700 c3         1 TIR      -0.050900
     27 C20          4.1240     1.1300     9.5270 c3         1 TIR      -0.079100
     28 C21          4.1880     0.2480     5.8800 c3         1 TIR      -0.059900
     29 C22         -0.4370    -0.0010     1.2700 c          1 TIR       0.720700
     30 H11          1.8370    -0.8900    -0.4940 h1         1 TIR       0.069200
     31 HO5         -0.8750    -0.8900     4.3730 ho         1 TIR       0.447000
     32 H5           2.7310     0.1760     3.9170 ha         1 TIR       0.187000
     33 H6           0.7150    -0.2040     6.2100 ha         1 TIR       0.137000
     34 H8           1.8060    -0.2870     8.3270 ha         1 TIR       0.146000
     35 H9           4.8860    -0.2280     8.0460 hc         1 TIR       0.077700
     36 H10          4.8620    -1.3930    10.2500 h1         1 TIR       0.063700
     37 H112         1.4580    -1.2490    12.6610 hc         1 TIR       0.055700
     38 H212         1.4990    -2.9770    13.0400 hc         1 TIR       0.055700
     39 H312         0.5450    -2.3950    11.6690 hc         1 TIR       0.055700
     40 H13          3.4720    -4.7050     9.0680 h1         1 TIR       0.081700
     41 H14          2.9890    -2.5590     8.1820 hc         1 TIR       0.068700
     42 H115         4.8080    -2.3790     6.8860 hc         1 TIR       0.042033
     43 H215         5.3340    -3.8230     7.7620 hc         1 TIR       0.042033
     44 H315         5.9080    -2.2260     8.2630 hc         1 TIR       0.042033
     45 H16          4.6480    -5.2130    10.9740 h1         1 TIR       0.042700
     46 H17          5.7950    -3.3220    12.4220 ha         1 TIR       0.133000
     47 H119         5.1110    -1.3890    13.5080 hc         1 TIR       0.046700
     48 H219         3.4780    -0.7580    13.2540 hc         1 TIR       0.046700
     49 H319         3.7230    -2.2110    14.2330 hc         1 TIR       0.046700
     50 H120         3.1310     1.5210     9.7100 hc         1 TIR       0.041033
     51 H220         4.7080     1.8650     8.9880 hc         1 TIR       0.041033
     52 H320         4.6050     0.9090    10.4720 hc         1 TIR       0.041033
     53 H121         4.4390    -0.5910     5.2430 hc         1 TIR       0.049700
     54 H221         4.1380     1.1510     5.2840 hc         1 TIR       0.049700
     55 H321         4.9470     0.3620     6.6440 hc         1 TIR       0.049700
     56 HN          -0.5810     0.0010    -0.8150 hn         1 TIR       0.347500
     57 H12          1.8380     0.8890    -0.4950 h1         1 TIR       0.069200
     58 HO4          6.6080    -4.9520    10.2710 ho         1 TIR       0.406000
@<TRIPOS>BOND
     1     1     2 1
     2     1    29 1
     3     2     4 1
     4    29    13 2
     5    29     6 1
     6     4     3 2
     7     4     6 1
     8     6     8 2
     9     8    11 1
    10     8    10 1
    11    10    12 2
    12    12    14 1
    13    28    14 1
    14    14    15 2
    15     7    20 1
    16     7    18 1
    17    20    21 1
    18    20    23 1
    19    15    16 1
    20    21    22 1
    21    21    17 1
    22    19    18 1
    23    18     5 1
    24    18    25 1
    25    23     9 1
    26    23    24 1
    27     5    17 1
    28    17    16 1
    29    16    27 1
    30    25    24 2
    31    25    26 1
    32     2    30 1
    33     9    58 1
    34    10    32 1
    35    12    33 1
    36    15    34 1
    37    16    35 1
    38    17    36 1
    39    19    37 1
    40    19    38 1
    41    19    39 1
    42    20    40 1
    43    21    41 1
    44    22    42 1
    45    22    43 1
    46    22    44 1
    47    23    45 1
    48    24    46 1
    49    26    47 1
    50    26    48 1
    51    26    49 1
    52    27    50 1
    53    27    51 1
    54    27    52 1
    55    28    53 1
    56    28    54 1
    57    28    55 1
    58     1    56 1
    59     2    57 1
    60    11    31 1
@<TRIPOS>SUBSTRUCTURE
     1 TIR         1 TEMP              0 ****  ****    0 ROOT
