@<TRIPOS>MOLECULE
TIV
   47    52     1     0     0
SMALL
bcc


@<TRIPOS>ATOM
      1 C1           0.0000     0.0000     0.0000 c3         1 TIV      -0.041500
      2 N1          -0.8990     3.3670    -1.1890 na         1 TIV       0.365600
      3 O1          -1.4800     0.0010     1.9220 o          1 TIV      -0.617500
      4 C2           2.0720    -1.2390    -0.6720 cc         1 TIV      -0.148400
      5 N2           0.7710     0.0000     2.1960 ns         1 TIV      -0.171500
      6 O2           3.0220    -0.0010     1.9230 o          1 TIV      -0.617500
      7 C3           1.7770    -2.5230    -0.3420 cd         1 TIV      -0.245100
      8 N3           2.4360    -3.3850    -1.1620 na         1 TIV       0.411600
      9 C4          -0.5300     1.2400    -0.6730 cc         1 TIV      -0.139400
     10 C5          -0.2320     2.5100    -0.3570 cd         1 TIV      -0.263100
     11 C6           1.5420     0.0000     0.0000 c3         1 TIV      -0.037500
     12 C7          -0.3550     0.0010     1.4710 c          1 TIV       0.616500
     13 C8           1.8970     0.0000     1.4720 c          1 TIV       0.615500
     14 C9          -1.6610     2.6510    -2.0850 ca         1 TIV      -0.226200
     15 C10         -1.4590     1.2880    -1.8050 ca         1 TIV      -0.081800
     16 C11         -2.1130     0.3150    -2.5650 ca         1 TIV      -0.041000
     17 C12         -2.9400     0.6950    -3.5840 ca         1 TIV      -0.128000
     18 C13         -3.1360     2.0390    -3.8710 ca         1 TIV      -0.083000
     19 C14         -2.5160     3.0140    -3.1200 ca         1 TIV      -0.101000
     20 C15          3.9990    -3.1430    -3.0630 ca         1 TIV      -0.093300
     21 C16          4.0720    -4.6350    -3.1960 c3         1 TIV       0.048900
     22 C17          3.8090    -5.2840    -1.8320 c3         1 TIV      -0.036400
     23 C18          2.4670    -4.8530    -1.2280 c3         1 TIV      -0.026700
     24 C19          3.1790    -2.6490    -2.0510 ca         1 TIV      -0.226200
     25 C20          2.9980    -1.2830    -1.7890 ca         1 TIV      -0.066800
     26 C21          3.6750    -0.3490    -2.5780 ca         1 TIV      -0.041000
     27 C22          4.4840    -0.8460    -3.5740 ca         1 TIV      -0.127000
     28 C23          4.6510    -2.2080    -3.8220 ca         1 TIV      -0.078000
     29 H02         -0.3790    -0.8940    -0.4810 hc         1 TIV       0.072700
     30 H04          0.7710    -0.0000     3.1970 hn         1 TIV       0.189500
     31 H05          1.1110    -2.8180     0.4590 h4         1 TIV       0.137000
     32 H06          0.4380     2.8120     0.4390 h4         1 TIV       0.139000
     33 H07          1.9210     0.8940    -0.4810 hc         1 TIV       0.070700
     34 H08         -1.9650    -0.7360    -2.3480 ha         1 TIV       0.101000
     35 H09         -3.4340    -0.0600    -4.1840 ha         1 TIV       0.102000
     36 H10         -3.7950     2.3240    -4.6820 ha         1 TIV       0.101000
     37 H11         -2.6750     4.0600    -3.3520 ha         1 TIV       0.099000
     38 H12          5.0580    -4.9170    -3.5450 hc         1 TIV       0.022700
     39 H18          3.3240    -4.9710    -3.9040 hc         1 TIV       0.022700
     40 H13          4.6050    -5.0030    -1.1530 hc         1 TIV       0.026200
     41 H19          3.8080    -6.3610    -1.9530 hc         1 TIV       0.026200
     42 H17          1.6560    -5.2060    -1.8530 h1         1 TIV       0.026200
     43 H14          2.3700    -5.2640    -0.2300 h1         1 TIV       0.026200
     44 H15          3.5680     0.7170    -2.4130 ha         1 TIV       0.106000
     45 H16          5.0200    -0.1420    -4.1990 ha         1 TIV       0.097000
     46 H01          5.3040    -2.5300    -4.6230 ha         1 TIV       0.101000
     47 H03         -0.8410     4.3660    -1.1530 hn         1 TIV       0.114700
@<TRIPOS>BOND
     1     1     9 1   
     2     1    11 1   
     3     1    12 1   
     4     1    29 1   
     5     2    10 1   
     6     2    14 1   
     7     2    47 1   
     8     3    12 2   
     9     4     7 2   
    10     4    11 1   
    11     4    25 1   
    12     5    12 1   
    13     5    13 1   
    14     5    30 1   
    15     6    13 2   
    16     7     8 1   
    17     7    31 1   
    18     8    23 1   
    19     8    24 1   
    20     9    10 2   
    21     9    15 1   
    22    10    32 1   
    23    11    13 1   
    24    11    33 1   
    25    14    15 ar  
    26    14    19 ar  
    27    15    16 ar  
    28    16    17 ar  
    29    16    34 1   
    30    17    18 ar  
    31    17    35 1   
    32    18    19 ar  
    33    18    36 1   
    34    19    37 1   
    35    20    21 1   
    36    20    24 ar  
    37    20    28 ar  
    38    21    22 1   
    39    21    38 1   
    40    21    39 1   
    41    22    23 1   
    42    22    40 1   
    43    22    41 1   
    44    23    42 1   
    45    23    43 1   
    46    24    25 ar  
    47    25    26 ar  
    48    26    27 ar  
    49    26    44 1   
    50    27    28 ar  
    51    27    45 1   
    52    28    46 1   
@<TRIPOS>SUBSTRUCTURE
     1 TIV         1 TEMP              0 ****  ****    0 ROOT
