@<TRIPOS>MOLECULE
molecule
   47    52     1     0     0
SMALL
bcc


@<TRIPOS>ATOM
      1 C1           0.0000     0.0000     0.0000 c3         1 TIV      -0.075500
      2 N1          -0.8990     3.3670    -1.1890 na         1 TIV      -0.176400
      3 O1          -1.4800     0.0010     1.9220 o          1 TIV      -0.579500
      4 C2           2.0720    -1.2390    -0.6720 cc         1 TIV      -0.157400
      5 N2           0.7710     0.0000     2.1960 ns         1 TIV      -0.587500
      6 O2           3.0220    -0.0010     1.9230 o          1 TIV      -0.578500
      7 C3           1.7770    -2.5230    -0.3420 cd         1 TIV      -0.081100
      8 N3           2.4360    -3.3850    -1.1620 na         1 TIV      -0.060400
      9 C4          -0.5300     1.2400    -0.6730 cd         1 TIV      -0.148400
     10 C5          -0.2320     2.5100    -0.3570 cc         1 TIV      -0.088100
     11 C6           1.5420     0.0000     0.0000 c3         1 TIV      -0.071500
     12 C7          -0.3550     0.0010     1.4710 c          1 TIV       0.700500
     13 C8           1.8970     0.0000     1.4720 c          1 TIV       0.700500
     14 C9          -1.6610     2.6510    -2.0850 ca         1 TIV      -0.037200
     15 C10         -1.4590     1.2880    -1.8050 ca         1 TIV      -0.085800
     16 C11         -2.1130     0.3150    -2.5650 ca         1 TIV      -0.075000
     17 C12         -2.9400     0.6950    -3.5840 ca         1 TIV      -0.153000
     18 C13         -3.1360     2.0390    -3.8710 ca         1 TIV      -0.106000
     19 C14         -2.5160     3.0140    -3.1200 ca         1 TIV      -0.142000
     20 C15          3.9990    -3.1430    -3.0630 ca         1 TIV      -0.094300
     21 C16          4.0720    -4.6350    -3.1960 c3         1 TIV      -0.024100
     22 C17          3.8090    -5.2840    -1.8320 c3         1 TIV      -0.097400
     23 C18          2.4670    -4.8530    -1.2280 c3         1 TIV       0.059300
     24 C19          3.1790    -2.6490    -2.0510 ca         1 TIV      -0.054200
     25 C20          2.9980    -1.2830    -1.7890 ca         1 TIV      -0.073800
     26 C21          3.6750    -0.3490    -2.5780 ca         1 TIV      -0.075000
     27 C22          4.4840    -0.8460    -3.5740 ca         1 TIV      -0.153000
     28 C23          4.6510    -2.2080    -3.8220 ca         1 TIV      -0.105000
     29 H02         -0.3790    -0.8940    -0.4810 hc         1 TIV       0.104700
     30 H04          0.7710    -0.0000     3.1970 hn         1 TIV       0.340500
     31 H05          1.1110    -2.8180     0.4590 h4         1 TIV       0.163000
     32 H06          0.4380     2.8120     0.4390 h4         1 TIV       0.166000
     33 H07          1.9210     0.8940    -0.4810 hc         1 TIV       0.102700
     34 H08         -1.9650    -0.7360    -2.3480 ha         1 TIV       0.131000
     35 H09         -3.4340    -0.0600    -4.1840 ha         1 TIV       0.130000
     36 H10         -3.7950     2.3240    -4.6820 ha         1 TIV       0.131000
     37 H11         -2.6750     4.0600    -3.3520 ha         1 TIV       0.126000
     38 H12          5.0580    -4.9170    -3.5450 hc         1 TIV       0.055200
     39 H18          3.3240    -4.9710    -3.9040 hc         1 TIV       0.055200
     40 H13          4.6050    -5.0030    -1.1530 hc         1 TIV       0.057700
     41 H19          3.8080    -6.3610    -1.9530 hc         1 TIV       0.057700
     42 H17          1.6560    -5.2060    -1.8530 h1         1 TIV       0.056200
     43 H14          2.3700    -5.2640    -0.2300 h1         1 TIV       0.056200
     44 H15          3.5680     0.7170    -2.4130 ha         1 TIV       0.136000
     45 H16          5.0200    -0.1420    -4.1990 ha         1 TIV       0.124000
     46 H01          5.3040    -2.5300    -4.6230 ha         1 TIV       0.128000
     47 H03         -0.8410     4.3660    -1.1530 hn         1 TIV       0.299700
@<TRIPOS>BOND
     1    21    20 1
     2    21    22 1
     3    28    20 ar
     4    28    27 ar
     5    20    24 ar
     6    22    23 1
     7    27    26 ar
     8    24     8 1
     9    24    25 ar
    10    23     8 1
    11    26    25 ar
    12     8     7 1
    13    25     4 1
    14     7     4 2
    15     4    11 1
    16     6    13 2
    17    11    13 1
    18    11     1 1
    19    13     5 1
    20     1     9 1
    21     1    12 1
    22    10     9 2
    23    10     2 1
    24     5    12 1
    25     9    15 1
    26    12     3 2
    27     2    14 1
    28    15    14 ar
    29    15    16 ar
    30    14    19 ar
    31    16    17 ar
    32    19    18 ar
    33    17    18 ar
    34     1    29 1
    35     2    47 1
    36     5    30 1
    37     7    31 1
    38    10    32 1
    39    11    33 1
    40    16    34 1
    41    17    35 1
    42    18    36 1
    43    19    37 1
    44    21    38 1
    45    21    39 1
    46    22    40 1
    47    22    41 1
    48    23    42 1
    49    23    43 1
    50    26    44 1
    51    27    45 1
    52    28    46 1
@<TRIPOS>SUBSTRUCTURE
     1 TIV         1 TEMP              0 ****  ****    0 ROOT
