@<TRIPOS>MOLECULE
TIY
   24    25     1     0     0
SMALL
bcc


@<TRIPOS>ATOM
      1 C13        -0.0410   -0.0360    0.0580 ca        1 TIY      0.182100
      2 C15         1.3650    0.0290    0.0760 ca        1 TIY     -0.105900
      3 O01         3.3970    0.3400    1.3390 oh        1 TIY     -0.478100
      4 C02         2.0310    0.2760    1.2840 ca        1 TIY      0.197100
      5 C03         1.3110    0.4080    2.4970 ca        1 TIY     -0.202600
      6 C04        -0.0890    0.2820    2.4730 ca        1 TIY      0.064200
      7 C05        -0.9360    0.3650    3.6470 cc        1 TIY     -0.143200
      8 C06        -0.6370    0.0380    4.9170 cd        1 TIY     -0.077000
      9 C07         0.6180   -0.4000    5.4500 cd        1 TIY     -0.163000
     10 C08         1.8290   -0.1190    4.9180 cc        1 TIY      0.033900
     11 C09         2.0930    0.7030    3.7080 c         1 TIY      0.575900
     12 O10         3.0000    1.5440    3.7370 o         1 TIY     -0.511100
     13 O11         2.9400   -0.6020    5.5750 oh        1 TIY     -0.494100
     14 C12        -0.7580    0.0830    1.2490 ca        1 TIY     -0.197000
     15 O14        -0.7430   -0.2350   -1.1000 oh        1 TIY     -0.485100
     16 O16         2.0750   -0.0380   -1.1100 oh        1 TIY     -0.514100
     17 HO01        3.7250    0.4760    0.4330 ho        1 TIY      0.440000
     18 H06        -1.4480    0.0930    5.6700 ha        1 TIY      0.135000
     19 H07         0.5770   -0.9770    6.3910 ha        1 TIY      0.154000
     20 H4          3.7090   -0.0870    5.2780 ho        1 TIY      0.439000
     21 H12        -1.8560    0.0130    1.2200 ha        1 TIY      0.161000
     22 HO14       -0.1150   -0.1800   -1.8410 ho        1 TIY      0.438000
     23 HO16        2.3590   -0.9620   -1.2010 ho        1 TIY      0.415000
     24 H05        -1.9730    0.6870    3.4270 ha        1 TIY      0.136000
@<TRIPOS>BOND
     1    1    2 ar  
     2    1   14 ar  
     3    1   15 1   
     4    2    4 ar  
     5    2   16 1   
     6    3    4 1   
     7    3   17 1   
     8    4    5 ar  
     9    5    6 ar  
    10    5   11 1   
    11    6    7 1   
    12    6   14 ar  
    13    7    8 2   
    14    7   24 1   
    15    8    9 1   
    16    8   18 1   
    17    9   10 2   
    18    9   19 1   
    19   10   11 1   
    20   10   13 1   
    21   11   12 2   
    22   13   20 1   
    23   14   21 1   
    24   15   22 1   
    25   16   23 1   
@<TRIPOS>SUBSTRUCTURE
     1 TIY         1 TEMP              0 ****  ****    0 ROOT
