@<TRIPOS>MOLECULE
molecule
   24    25     1     0     0
SMALL
bcc


@<TRIPOS>ATOM
      1 C13          0.0000     0.0000     0.0000 ca         1 TIY       0.124100
      2 C15          1.3970     0.0000     0.0000 ca         1 TIY       0.030100
      3 O01          3.4600     0.0010     1.1860 oh         1 TIY      -0.460100
      4 C02          2.1000     0.0000     1.1920 ca         1 TIY       0.155100
      5 C03          1.4010     0.0010     2.4080 ca         1 TIY      -0.158600
      6 C04         -0.0170    -0.0000     2.4050 ca         1 TIY       0.011200
      7 C05         -0.8930    -0.0000     3.5130 cc         1 TIY      -0.095200
      8 C06         -0.5870    -0.0000     4.8380 cd         1 TIY      -0.109000
      9 C07          0.6570     0.0010     5.4730 cd         1 TIY      -0.121000
     10 C08          1.9220     0.0020     4.9370 cc         1 TIY       0.029900
     11 C09          2.2970     0.0010     3.5660 c          1 TIY       0.547900
     12 O10          3.4950     0.0010     3.3290 o          1 TIY      -0.498100
     13 O11          2.9440     0.0040     5.8300 oh         1 TIY      -0.502100
     14 C12         -0.7050     0.0060     1.1860 ca         1 TIY      -0.182000
     15 O14         -0.6720    -0.0010    -1.1810 oh         1 TIY      -0.516100
     16 O16          2.0730    -0.0010    -1.1800 oh         1 TIY      -0.498100
     17 HO01         3.7720     0.8140     0.8250 ho         1 TIY       0.421000
     18 H06         -1.4410    -0.0010     5.5050 ha         1 TIY       0.128000
     19 H07          0.6180     0.0000     6.5550 ha         1 TIY       0.136000
     20 H4           3.0920     0.8840     6.1350 ho         1 TIY       0.423000
     21 H12         -1.7880     0.0060     1.1730 ha         1 TIY       0.149000
     22 HO14        -1.0460    -0.8540    -1.3300 ho         1 TIY       0.433000
     23 HO16         2.1540     0.8830    -1.4970 ho         1 TIY       0.420000
     24 H05         -1.9500    -0.0010     3.2760 ha         1 TIY       0.131000
@<TRIPOS>BOND
     1     1    15 1
     2     1    14 ar
     3     2     1 ar
     4     3     4 1
     5     4     2 ar
     6     4     5 ar
     7     5     6 ar
     8     6    14 ar
     9     6     7 1
    10     7     8 2
    11     9     8 1
    12    10     9 2
    13    11     5 1
    14    11    10 1
    15    12    11 2
    16    13    10 1
    17    16     2 1
    18     3    17 1
    19     8    18 1
    20     9    19 1
    21    13    20 1
    22    14    21 1
    23    15    22 1
    24    16    23 1
    25     7    24 1
@<TRIPOS>SUBSTRUCTURE
     1 TIY         1 TEMP              0 ****  ****    0 ROOT
