@<TRIPOS>MOLECULE
TIZ
   30    31     1     0     0
SMALL
bcc


@<TRIPOS>ATOM
      1 O2'          0.0000     0.0000     0.0000 oh         1 TIZ      -0.550800
      2 C2'          1.4130     0.0000     0.0000 c3         1 TIZ       0.155100
      3 C3'          2.0020     0.0000     1.3980 c3         1 TIZ       0.142100
      4 O3'          1.2620     0.8650     2.2590 oh         1 TIZ      -0.548800
      5 C4'          3.3900     0.5840     1.1670 c3         1 TIZ       0.133100
      6 C5'          4.4350    -0.4750     0.8470 c3         1 TIZ       0.211400
      7 O5'          5.6820     0.1670     0.6400 oh         1 TIZ      -0.578800
      8 O4'          3.2750     1.4670     0.0290 os         1 TIZ      -0.362600
      9 C1'          1.9850     1.2820    -0.5990 c3         1 TIZ       0.121800
     10 C1M          2.0700     1.2510    -2.1000 cc         1 TIZ       0.461700
     11 N1H          3.0940     0.7810    -2.7810 nd         1 TIZ      -0.582000
     12 S1J          0.7580     1.8610    -3.0270 ss         1 TIZ      -0.080300
     13 C1F          1.6180     1.4710    -4.4590 cc         1 TIZ       0.022600
     14 C1L          2.8330     0.9070    -4.1310 cd         1 TIZ       0.147800
     15 C1K          3.7970     0.4650    -5.1000 c          1 TIZ       0.283600
     16 O1B          3.6020     0.5790    -6.3320 o          1 TIZ      -0.445100
     17 N1A          4.9950    -0.0930    -4.6400 nz         1 TIZ       0.206600
     18 HO2'        -0.3140    -0.8830    -0.0990 ho         1 TIZ       0.400000
     19 H2'          1.7850    -0.8560    -0.5510 h1         1 TIZ       0.007700
     20 H3'          2.0630    -1.0060     1.7960 h1         1 TIZ       0.021700
     21 HO3'         1.0860     0.4220     3.0730 ho         1 TIZ       0.403000
     22 H4'          3.6940     1.1520     2.0380 h1         1 TIZ       0.065700
     23 H5'1         4.5150    -1.1680     1.6750 h1         1 TIZ      -0.008800
     24 H5'2         4.1470    -1.0100    -0.0500 h1         1 TIZ      -0.008800
     25 HO5'         6.3730    -0.3680     0.9940 ho         1 TIZ       0.395000
     26 H1'          1.3460     2.1070    -0.3070 h1         1 TIZ       0.068700
     27 H1F          1.0820     1.1310    -5.3370 h4         1 TIZ       0.178000
     28 H1A1         4.7970    -0.9120    -4.1000 hn         1 TIZ       0.246800
     29 H1A2         5.5700    -0.3390    -5.4210 hn         1 TIZ       0.246800
     30 H1A3         5.4760     0.5740    -4.0690 hn         1 TIZ       0.246800
@<TRIPOS>BOND
     1     1     2 1   
     2     1    18 1   
     3     2     3 1   
     4     2     9 1   
     5     2    19 1   
     6     3     4 1   
     7     3     5 1   
     8     3    20 1   
     9     4    21 1   
    10     5     6 1   
    11     5     8 1   
    12     5    22 1   
    13     6     7 1   
    14     6    23 1   
    15     6    24 1   
    16     7    25 1   
    17     8     9 1   
    18     9    10 1   
    19     9    26 1   
    20    10    11 2   
    21    10    12 1   
    22    11    14 1   
    23    12    13 1   
    24    13    14 2   
    25    13    27 1   
    26    14    15 1   
    27    15    16 2   
    28    15    17 1   
    29    17    28 1   
    30    17    29 1   
    31    17    30 1   
@<TRIPOS>SUBSTRUCTURE
     1 TIZ         1 TEMP              0 ****  ****    0 ROOT
