@<TRIPOS>MOLECULE
TJ2
   54    56     1     0     0
SMALL
bcc


@<TRIPOS>ATOM
      1 C            0.0000     0.0000     0.0000 c          1 TJ2       0.562100
      2 N            1.9960     1.1960    -0.6900 n          1 TJ2      -0.162800
      3 O           -0.6070     1.0090     0.2910 o          1 TJ2      -0.590100
      4 CA           1.5070     0.0000     0.0000 c3         1 TJ2       0.090900
      5 OAE          2.1900     3.0240     0.9800 o          1 TJ2      -0.850800
      6 OAG          0.6810     3.0500     2.6110 o          1 TJ2      -0.850800
      7 CAJ          1.1380     2.1820    -1.0200 c          1 TJ2       0.615900
      8 CAK          5.3510     1.8370     2.1780 ca         1 TJ2      -0.131500
      9 CAL          4.9380     3.9790     1.1840 ca         1 TJ2      -0.131500
     10 CAM          3.1840    -3.3370     2.7230 ca         1 TJ2      -0.142000
     11 CAN          4.6850     1.2250     1.1330 ca         1 TJ2      -0.041500
     12 CAO          4.2670     3.3650     0.1430 ca         1 TJ2      -0.041500
     13 CAP          2.6740    -2.4710     1.8010 ca         1 TJ2      -0.064000
     14 CAQ          3.3760    -1.5690     4.3430 ca         1 TJ2      -0.082000
     15 CAR          3.4180     1.3200    -1.0230 c3         1 TJ2       0.125300
     16 NAS         -0.6740    -1.1230    -0.3200 ns         1 TJ2      -0.205900
     17 NAT          2.5850     0.6800     3.4700 na         1 TJ2       0.409600
     18 CAW          5.4750     3.2160     2.2050 ca         1 TJ2      -0.020600
     19 CAX          3.5370    -2.8910     3.9930 ca         1 TJ2      -0.039600
     20 CAY          4.1430     1.9880     0.1160 ca         1 TJ2      -0.062300
     21 CAZ          2.0700     1.0760     2.2500 cc         1 TJ2      -0.161300
     22 CBA          2.0080     0.0000     1.4210 cd         1 TJ2      -0.235400
     23 CBB          2.8570    -0.6670     3.4200 ca         1 TJ2      -0.256200
     24 CBC          2.5010    -1.1200     2.1330 ca         1 TJ2      -0.077800
     25 CBF         -2.1340    -1.0930    -0.4350 c3         1 TJ2       0.014400
     26 HA           1.8680    -0.8850    -0.5100 h1         1 TJ2       0.008700
     27 HAA         -1.8670    -0.1900    -2.3670 hc         1 TJ2       0.014589
     28 HAAA        -3.5530    -0.3050    -1.8430 hc         1 TJ2       0.014589
     29 HAAB        -2.4850     0.9110    -1.1280 hc         1 TJ2       0.014589
     30 HAB         -2.1700    -1.0960     1.7140 hc         1 TJ2       0.014589
     31 HABA        -3.7670    -1.0100     0.9600 hc         1 TJ2       0.014589
     32 HABB        -2.7200     0.4160     0.9800 hc         1 TJ2       0.014589
     33 HAC         -2.3730    -3.1890    -0.0240 hc         1 TJ2       0.014589
     34 HACA        -3.7230    -2.4610    -0.9050 hc         1 TJ2       0.014589
     35 HACB        -2.2010    -2.7980    -1.7410 hc         1 TJ2       0.014589
     36 HAJ          0.0850     2.0830    -0.7870 h5         1 TJ2       0.056200
     37 HAK          5.7750     1.2390     2.9750 ha         1 TJ2       0.101500
     38 HAL          5.0350     5.0580     1.2040 ha         1 TJ2       0.101500
     39 HAM          3.3160    -4.3800     2.4650 ha         1 TJ2       0.100000
     40 HAN          4.5870     0.1460     1.1110 ha         1 TJ2       0.118500
     41 HAO          3.8440     3.9620    -0.6560 ha         1 TJ2       0.118500
     42 HAP          2.4020    -2.8260     0.8150 ha         1 TJ2       0.090000
     43 HAQ          3.5800    -1.2480     5.3570 ha         1 TJ2       0.104000
     44 HAR          3.5280     1.9150    -1.9210 h1         1 TJ2       0.013700
     45 HARA         3.8360     0.3340    -1.1890 h1         1 TJ2       0.013700
     46 HNAS        -0.1740    -1.9700    -0.5060 hn         1 TJ2       0.170500
     47 HNAT         2.7320     1.2750     4.2620 hn         1 TJ2       0.126700
     48 ClAI         4.1850    -4.0140     5.1470 cl         1 TJ2      -0.080400
     49 CAU          1.6550     2.4420     1.9040 c          1 TJ2       0.979800
     50 ClAH         6.3050     3.9870     3.5220 cl         1 TJ2      -0.095400
     51 CAA         -2.5390    -0.0970    -1.5220 c3         1 TJ2      -0.019100
     52 CAB         -2.7420    -0.6640     0.9020 c3         1 TJ2      -0.019100
     53 CAC         -2.6450    -2.4860    -0.8030 c3         1 TJ2      -0.019100
     54 OAD          1.5360     3.1560    -1.6210 o          1 TJ2      -0.673100
@<TRIPOS>BOND
     1     1     3 2   
     2     1     4 1   
     3     1    16 1   
     4     2     4 1   
     5     2     7 1   
     6     2    15 1   
     7     4    22 1   
     8     4    26 1   
     9     5    49 1   
    10     6    49 1   
    11     7    36 1   
    12     7    54 2   
    13     8    11 ar  
    14     8    18 ar  
    15     8    37 1   
    16     9    12 ar  
    17     9    18 ar  
    18     9    38 1   
    19    10    13 ar  
    20    10    19 ar  
    21    10    39 1   
    22    11    20 ar  
    23    11    40 1   
    24    12    20 ar  
    25    12    41 1   
    26    13    24 ar  
    27    13    42 1   
    28    14    19 ar  
    29    14    23 ar  
    30    14    43 1   
    31    15    20 1   
    32    15    44 1   
    33    15    45 1   
    34    16    25 1   
    35    16    46 1   
    36    17    21 1   
    37    17    23 1   
    38    17    47 1   
    39    18    50 1   
    40    19    48 1   
    41    21    22 2   
    42    21    49 1   
    43    22    24 1   
    44    23    24 ar  
    45    25    51 1   
    46    25    52 1   
    47    25    53 1   
    48    27    51 1   
    49    28    51 1   
    50    29    51 1   
    51    30    52 1   
    52    31    52 1   
    53    32    52 1   
    54    33    53 1   
    55    34    53 1   
    56    35    53 1   
@<TRIPOS>SUBSTRUCTURE
     1 TJ2         1 TEMP              0 ****  ****    0 ROOT
