@<TRIPOS>MOLECULE
molecule
   54    56     1     0     0
SMALL
bcc


@<TRIPOS>ATOM
      1 C            0.0000     0.0000     0.0000 c          1 TJ2       0.652100
      2 N            1.9960     1.1960    -0.6900 n          1 TJ2      -0.483800
      3 O           -0.6070     1.0090     0.2910 o          1 TJ2      -0.568100
      4 CA           1.5070     0.0000     0.0000 c3         1 TJ2       0.150900
      5 OAE          2.1900     3.0240     0.9800 o          1 TJ2      -0.793300
      6 OAG          0.6810     3.0500     2.6110 o          1 TJ2      -0.793300
      7 CAJ          1.1380     2.1820    -1.0200 c          1 TJ2       0.673900
      8 CAK          5.3510     1.8370     2.1780 ca         1 TJ2      -0.145500
      9 CAL          4.9380     3.9790     1.1840 ca         1 TJ2      -0.145500
     10 CAM          3.1840    -3.3370     2.7230 ca         1 TJ2      -0.155000
     11 CAN          4.6850     1.2250     1.1330 ca         1 TJ2      -0.063000
     12 CAO          4.2670     3.3650     0.1430 ca         1 TJ2      -0.063000
     13 CAP          2.6740    -2.4710     1.8010 ca         1 TJ2      -0.103000
     14 CAQ          3.3760    -1.5690     4.3430 ca         1 TJ2      -0.122000
     15 CAR          3.4180     1.3200    -1.0230 c3         1 TJ2       0.173300
     16 NAS         -0.6740    -1.1230    -0.3200 ns         1 TJ2      -0.584900
     17 NAT          2.5850     0.6800     3.4700 na         1 TJ2      -0.147400
     18 CAW          5.4750     3.2160     2.2050 ca         1 TJ2       0.028400
     19 CAX          3.5370    -2.8910     3.9930 ca         1 TJ2       0.015400
     20 CAY          4.1430     1.9880     0.1160 ca         1 TJ2      -0.062300
     21 CAZ          2.0700     1.0760     2.2500 cc         1 TJ2       0.040700
     22 CBA          2.0080     0.0000     1.4210 cd         1 TJ2      -0.241400
     23 CBB          2.8570    -0.6670     3.4200 ca         1 TJ2      -0.062200
     24 CBC          2.5010    -1.1200     2.1330 ca         1 TJ2      -0.073800
     25 CBF         -2.1340    -1.0930    -0.4350 c3         1 TJ2       0.125400
     26 HA           1.8680    -0.8850    -0.5100 h1         1 TJ2       0.035700
     27 HAA         -1.8670    -0.1900    -2.3670 hc         1 TJ2       0.042922
     28 HAAA        -3.5530    -0.3050    -1.8430 hc         1 TJ2       0.042922
     29 HAAB        -2.4850     0.9110    -1.1280 hc         1 TJ2       0.042922
     30 HAB         -2.1700    -1.0960     1.7140 hc         1 TJ2       0.042922
     31 HABA        -3.7670    -1.0100     0.9600 hc         1 TJ2       0.042922
     32 HABB        -2.7200     0.4160     0.9800 hc         1 TJ2       0.042922
     33 HAC         -2.3730    -3.1890    -0.0240 hc         1 TJ2       0.042922
     34 HACA        -3.7230    -2.4610    -0.9050 hc         1 TJ2       0.042922
     35 HACB        -2.2010    -2.7980    -1.7410 hc         1 TJ2       0.042922
     36 HAJ          0.0850     2.0830    -0.7870 h5         1 TJ2       0.083200
     37 HAK          5.7750     1.2390     2.9750 ha         1 TJ2       0.125500
     38 HAL          5.0350     5.0580     1.2040 ha         1 TJ2       0.125500
     39 HAM          3.3160    -4.3800     2.4650 ha         1 TJ2       0.124000
     40 HAN          4.5870     0.1460     1.1110 ha         1 TJ2       0.142000
     41 HAO          3.8440     3.9620    -0.6560 ha         1 TJ2       0.142000
     42 HAP          2.4020    -2.8260     0.8150 ha         1 TJ2       0.117000
     43 HAQ          3.5800    -1.2480     5.3570 ha         1 TJ2       0.131000
     44 HAR          3.5280     1.9150    -1.9210 h1         1 TJ2       0.043200
     45 HARA         3.8360     0.3340    -1.1890 h1         1 TJ2       0.043200
     46 HNAS        -0.1740    -1.9700    -0.5060 hn         1 TJ2       0.306500
     47 HNAT         2.7320     1.2750     4.2620 hn         1 TJ2       0.312700
     48 ClAI         4.1850    -4.0140     5.1470 cl         1 TJ2      -0.149400
     49 CAU          1.6550     2.4420     1.9040 c          1 TJ2       0.887800
     50 ClAH         6.3050     3.9870     3.5220 cl         1 TJ2      -0.165400
     51 CAA         -2.5390    -0.0970    -1.5220 c3         1 TJ2      -0.101100
     52 CAB         -2.7420    -0.6640     0.9020 c3         1 TJ2      -0.101100
     53 CAC         -2.6450    -2.4860    -0.8030 c3         1 TJ2      -0.101100
     54 OAD          1.5360     3.1560    -1.6210 o          1 TJ2      -0.640100
@<TRIPOS>BOND
     1     3     1 2
     2    16     1 1
     3     1     4 1
     4    15     2 1
     5     4     2 1
     6     2     7 1
     7    22     4 1
     8     4    26 1
     9    51    25 1
    10    51    27 1
    11    51    28 1
    12    51    29 1
    13    52    25 1
    14    52    30 1
    15    52    31 1
    16    52    32 1
    17    53    25 1
    18    53    33 1
    19    53    34 1
    20    53    35 1
    21     7    54 2
    22    49     5 1
    23    49     6 1
    24    18    50 1
    25    48    19 1
    26     7    36 1
    27    11     8 ar
    28     8    18 ar
    29     8    37 1
    30    18     9 ar
    31    12     9 ar
    32     9    38 1
    33    10    19 ar
    34    10    13 ar
    35    10    39 1
    36    11    20 ar
    37    11    40 1
    38    20    12 ar
    39    12    41 1
    40    13    24 ar
    41    13    42 1
    42    19    14 ar
    43    14    23 ar
    44    14    43 1
    45    15    20 1
    46    15    44 1
    47    15    45 1
    48    25    16 1
    49    16    46 1
    50    23    17 1
    51    17    21 1
    52    21    49 1
    53    22    21 2
    54    24    22 1
    55    24    23 ar
    56    17    47 1
@<TRIPOS>SUBSTRUCTURE
     1 TJ2         1 TEMP              0 ****  ****    0 ROOT
