@<TRIPOS>MOLECULE
molecule
   40    43     1     0     0
SMALL
bcc


@<TRIPOS>ATOM
      1 C4           0.0000     0.0000     0.0000 ca         1 TJ3      -0.321200
      2 C5           1.3980     0.0000     0.0000 ca         1 TJ3       0.758200
      3 C7           1.3720    -0.0010     2.3040 ca         1 TJ3       0.860500
      4 C10          2.5610     0.0150     5.6410 cc         1 TJ3      -0.341300
      5 N12          7.6510     0.3240    -1.3590 ns         1 TJ3      -0.461100
      6 C13          3.4970     0.1190    -1.1850 ca         1 TJ3       0.117600
      7 C15          5.5000     0.9940    -0.1930 ca         1 TJ3      -0.134000
      8 C17          5.6280    -0.3980    -2.1420 ca         1 TJ3      -0.131300
      9 C20          6.7180    -0.9520    -3.0310 c3         1 TJ3      -0.121100
     10 C24          1.5400     0.0140     4.7530 cd         1 TJ3      -0.027600
     11 N2           0.0500     0.0030     2.3350 nb         1 TJ3      -0.803000
     12 C18          6.2670     0.3550    -1.1640 ca         1 TJ3       0.038600
     13 N8           2.0800     0.0040     3.5060 na         1 TJ3       0.039600
     14 C16          4.2580    -0.5190    -2.1570 ca         1 TJ3      -0.110000
     15 N22          3.4750     0.0000     3.6430 nd         1 TJ3      -0.476800
     16 C9           3.7610     0.0060     4.9200 cc         1 TJ3       0.351600
     17 C19          7.9970    -0.4150    -2.4270 c          1 TJ3       0.709500
     18 C14          4.1250     0.8760    -0.2050 ca         1 TJ3      -0.080000
     19 N6           2.0410     0.0000     1.1630 nb         1 TJ3      -0.785000
     20 Cl1         -0.8890    -0.0070    -1.4910 cl         1 TJ3      -0.092400
     21 O21          9.1230    -0.6150    -2.8290 o          1 TJ3      -0.608500
     22 N11          2.1010     0.0010    -1.1940 nu         1 TJ3      -0.750300
     23 C3          -0.6580    -0.0020     1.2150 ca         1 TJ3       0.530200
     24 C23          5.1460     0.0050     5.5120 c3         1 TJ3      -0.111400
     25 H1           2.4660     0.0220     6.7210 ha         1 TJ3       0.162000
     26 H3           5.9840     1.5860     0.5740 ha         1 TJ3       0.140000
     27 H4           6.5980    -0.5910    -4.0450 hc         1 TJ3       0.090200
     28 H5           6.7130    -2.0350    -3.0040 hc         1 TJ3       0.090200
     29 H6           3.7730    -1.1110    -2.9240 ha         1 TJ3       0.135000
     30 H10          3.5340     1.3740     0.5540 ha         1 TJ3       0.169000
     31 H11          1.6110    -0.0680    -2.0640 hn         1 TJ3       0.470800
     32 H12         -1.7410     0.0000     1.2520 h4         1 TJ3       0.046100
     33 H13          5.0980    -0.3280     6.5420 hc         1 TJ3       0.053033
     34 H14          5.7810    -0.6650     4.9450 hc         1 TJ3       0.053033
     35 H15          5.5550     1.0080     5.4760 hc         1 TJ3       0.053033
     36 C25          0.0710     0.0200     5.0880 c3         1 TJ3      -0.020800
     37 H2           8.3080     0.7990    -0.7720 hn         1 TJ3       0.337500
     38 H7          -0.3940     0.8990     4.6580 hc         1 TJ3       0.057700
     39 H8          -0.3960    -0.8690     4.6820 hc         1 TJ3       0.057700
     40 H9          -0.0540     0.0350     6.1640 hc         1 TJ3       0.057700
@<TRIPOS>BOND
     1    21    17 2
     2     5    17 1
     3     5    12 1
     4    17     9 1
     5    12     7 ar
     6    12     8 ar
     7     7    18 ar
     8     9     8 1
     9     8    14 ar
    10    36    10 1
    11    18     6 ar
    12     4    10 2
    13     4    16 1
    14    14     6 ar
    15    10    13 1
    16     6    22 1
    17    16    24 1
    18    16    15 2
    19    22     2 1
    20    19     2 ar
    21    19     3 ar
    22    13     3 1
    23    13    15 1
    24     2     1 ar
    25     3    11 ar
    26    11    23 ar
    27     1    23 ar
    28     1    20 1
    29     4    25 1
    30     5    37 1
    31     7    26 1
    32     9    27 1
    33     9    28 1
    34    14    29 1
    35    36    38 1
    36    36    39 1
    37    36    40 1
    38    18    30 1
    39    22    31 1
    40    23    32 1
    41    24    33 1
    42    24    34 1
    43    24    35 1
@<TRIPOS>SUBSTRUCTURE
     1 TJ3         1 TEMP              0 ****  ****    0 ROOT
