@<TRIPOS>MOLECULE
molecule
   63    64     1     0     0
SMALL
bcc


@<TRIPOS>ATOM
      1 C9           0.0000     0.0000     0.0000 c          1 TJE       0.647100
      2 O2           1.2130     0.0000     0.0000 o          1 TJE      -0.539100
      3 C10         -0.7530     0.0000     1.3050 c3         1 TJE      -0.171100
      4 N1          -0.6730     0.0070    -1.1670 ns         1 TJE      -0.581900
      5 C8           0.0590     0.0140    -2.4360 c3         1 TJE       0.054700
      6 C11          0.9250    -1.2160    -2.5230 c          1 TJE       0.640100
      7 O3           1.2200    -1.8230    -1.5150 o          1 TJE      -0.594100
      8 C7           0.9390     1.2630    -2.5090 c3         1 TJE      -0.059100
      9 C4           0.0670     2.4920    -2.5470 ca         1 TJE      -0.062300
     10 C3          -0.3090     3.1080    -1.3670 ca         1 TJE      -0.113000
     11 C5          -0.3530     3.0040    -3.7600 ca         1 TJE      -0.113000
     12 C2          -1.1090     4.2330    -1.3980 ca         1 TJE      -0.160000
     13 C6          -1.1530     4.1300    -3.7970 ca         1 TJE      -0.160000
     14 C1          -1.5360     4.7460    -2.6150 ca         1 TJE       0.072100
     15 O1          -2.3230     5.8530    -2.6480 oh         1 TJE      -0.535100
     16 N2           1.3710    -1.6420    -3.7200 ns         1 TJE      -0.519900
     17 C12          2.2130    -2.8380    -3.8050 c3         1 TJE      -0.063500
     18 C13          1.7260    -3.7260    -4.9520 c3         1 TJE      -0.096100
     19 P1           3.9410    -2.3450    -4.1110 p5         1 TJE       0.978400
     20 O4           4.4550    -1.4110    -2.9050 o          1 TJE      -0.789000
     21 C14          4.9890    -3.8330    -4.2170 c3         1 TJE      -0.242600
     22 C15          6.4140    -3.4290    -4.5970 c3         1 TJE      -0.133700
     23 C16          7.3660    -4.5950    -4.3250 c3         1 TJE      -0.037400
     24 C17          8.8060    -4.1500    -4.5870 c3         1 TJE      -0.068100
     25 C18          9.7440    -5.2990    -4.3180 ca         1 TJE      -0.030300
     26 C19         10.0740    -6.1740    -5.3370 ca         1 TJE      -0.130500
     27 C20         10.9340    -7.2280    -5.0910 ca         1 TJE      -0.147000
     28 C21         11.4630    -7.4080    -3.8260 ca         1 TJE      -0.173000
     29 C22         11.1330    -6.5330    -2.8090 ca         1 TJE      -0.147000
     30 C23         10.2780    -5.4750    -3.0560 ca         1 TJE      -0.130500
     31 C24          6.4620    -3.0720    -6.0600 c          1 TJE       0.902600
     32 O5           7.6190    -2.6840    -6.6200 o          1 TJE      -0.854300
     33 O6           5.4580    -3.1360    -6.7300 o          1 TJE      -0.854300
     34 O7           4.0220    -1.5950    -5.3840 o          1 TJE      -0.789000
     35 H10         -1.0420    -1.0140     1.5560 hc         1 TJE       0.046367
     36 H11         -1.6410     0.6150     1.2100 hc         1 TJE       0.046367
     37 H12         -0.1200     0.3990     2.0880 hc         1 TJE       0.046367
     38 H9          -1.6730    -0.0480    -1.1680 hn         1 TJE       0.296500
     39 H8          -0.6450     0.0190    -3.2590 h1         1 TJE       0.046700
     40 H6           1.5470     1.2240    -3.4050 hc         1 TJE       0.103200
     41 H7           1.5820     1.3040    -1.6390 hc         1 TJE       0.103200
     42 H3           0.0250     2.7070    -0.4170 ha         1 TJE       0.144000
     43 H4          -0.0540     2.5230    -4.6830 ha         1 TJE       0.144000
     44 H2          -1.4040     4.7140    -0.4740 ha         1 TJE       0.126000
     45 H5          -1.4830     4.5290    -4.7480 ha         1 TJE       0.126000
     46 H1          -1.7830     6.6210    -2.7320 ho         1 TJE       0.407000
     47 H13          1.1110    -1.1540    -4.5540 hn         1 TJE       0.307500
     48 H14          2.1540    -3.3880    -2.8740 h1         1 TJE       0.072700
     49 H15          2.1580    -3.3820    -5.8840 hc         1 TJE       0.029367
     50 H16          0.6450    -3.6740    -5.0140 hc         1 TJE       0.029367
     51 H17          2.0280    -4.7500    -4.7690 hc         1 TJE       0.029367
     52 H19          4.5900    -4.5030    -4.9700 hc         1 TJE       0.026700
     53 H20          5.0000    -4.3360    -3.2570 hc         1 TJE       0.026700
     54 H21          6.7160    -2.5720    -4.0060 hc         1 TJE       0.067700
     55 H22          7.2670    -4.9080    -3.2920 hc         1 TJE       0.010200
     56 H23          7.1190    -5.4220    -4.9790 hc         1 TJE       0.010200
     57 H24          8.9050    -3.8370    -5.6190 hc         1 TJE       0.089200
     58 H25          9.0530    -3.3220    -3.9330 hc         1 TJE       0.089200
     59 H26          9.6690    -6.0250    -6.3310 ha         1 TJE       0.137500
     60 H27         11.1970    -7.9100    -5.8910 ha         1 TJE       0.102500
     61 H28         12.1500    -8.2240    -3.6380 ha         1 TJE       0.097000
     62 H29         11.5480    -6.6730    -1.8180 ha         1 TJE       0.102500
     63 H30         10.1520    -4.7650    -2.2470 ha         1 TJE       0.137500
@<TRIPOS>BOND
     1    15    14 1
     2    14    12 ar
     3    14    13 ar
     4    12    10 ar
     5    13    11 ar
     6    10     9 ar
     7    11     9 ar
     8     9     8 1
     9    33    31 1
    10    32    31 1
    11    31    22 1
    12    29    30 ar
    13    29    28 ar
    14     8     5 1
    15    30    25 ar
    16    28    27 ar
    17    23    22 1
    18    23    24 1
    19    22    21 1
    20    25    24 1
    21    25    26 ar
    22     5     4 1
    23     5     6 1
    24    34    19 1
    25     4     1 1
    26    27    26 ar
    27     1     2 2
    28     1     3 1
    29    21    19 1
    30     6     7 2
    31     6    16 1
    32    19    20 1
    33    19    17 1
    34    16    17 1
    35    17    18 1
    36    15    46 1
    37    12    44 1
    38    10    42 1
    39    11    43 1
    40    13    45 1
    41     8    40 1
    42     8    41 1
    43     5    39 1
    44     4    38 1
    45     3    35 1
    46     3    36 1
    47     3    37 1
    48    16    47 1
    49    17    48 1
    50    18    49 1
    51    18    50 1
    52    18    51 1
    53    21    52 1
    54    21    53 1
    55    22    54 1
    56    23    55 1
    57    23    56 1
    58    24    57 1
    59    24    58 1
    60    26    59 1
    61    27    60 1
    62    28    61 1
    63    29    62 1
    64    30    63 1
@<TRIPOS>SUBSTRUCTURE
     1 TJE         1 TEMP              0 ****  ****    0 ROOT
