@<TRIPOS>MOLECULE
TJE
   63    64     1     0     0
SMALL
bcc


@<TRIPOS>ATOM
      1 C9           0.0000     0.0000     0.0000 c          1 TJE       0.554100
      2 O2           1.2130     0.0000     0.0000 o          1 TJE      -0.567100
      3 C10         -0.7530     0.0000     1.3050 c3         1 TJE      -0.071100
      4 N1          -0.6730     0.0070    -1.1670 ns         1 TJE      -0.189900
      5 C8           0.0590     0.0140    -2.4360 c3         1 TJE      -0.033300
      6 C11          0.9250    -1.2160    -2.5230 c          1 TJE       0.522100
      7 O3           1.2200    -1.8230    -1.5150 o          1 TJE      -0.651100
      8 C7           0.9390     1.2630    -2.5090 c3         1 TJE      -0.011100
      9 C4           0.0670     2.4920    -2.5470 ca         1 TJE      -0.072300
     10 C3          -0.3090     3.1080    -1.3670 ca         1 TJE      -0.083500
     11 C5          -0.3530     3.0040    -3.7600 ca         1 TJE      -0.083500
     12 C2          -1.1090     4.2330    -1.3980 ca         1 TJE      -0.147000
     13 C6          -1.1530     4.1300    -3.7970 ca         1 TJE      -0.147000
     14 C1          -1.5360     4.7460    -2.6150 ca         1 TJE       0.089100
     15 O1          -2.3230     5.8530    -2.6480 oh         1 TJE      -0.512100
     16 N2           1.3710    -1.6420    -3.7200 ns         1 TJE      -0.058900
     17 C12          2.2130    -2.8380    -3.8050 c3         1 TJE      -0.041500
     18 C13          1.7260    -3.7260    -4.9520 c3         1 TJE       0.012900
     19 P1           3.9410    -2.3450    -4.1110 p5         1 TJE       0.329400
     20 O4           4.4550    -1.4110    -2.9050 o          1 TJE      -0.609500
     21 C14          4.9890    -3.8330    -4.2170 c3         1 TJE      -0.009600
     22 C15          6.4140    -3.4290    -4.5970 c3         1 TJE      -0.112700
     23 C16          7.3660    -4.5950    -4.3250 c3         1 TJE       0.012600
     24 C17          8.8060    -4.1500    -4.5870 c3         1 TJE      -0.046100
     25 C18          9.7440    -5.2990    -4.3180 ca         1 TJE      -0.020300
     26 C19         10.0740    -6.1740    -5.3370 ca         1 TJE      -0.105000
     27 C20         10.9340    -7.2280    -5.0910 ca         1 TJE      -0.125000
     28 C21         11.4630    -7.4080    -3.8260 ca         1 TJE      -0.155000
     29 C22         11.1330    -6.5330    -2.8090 ca         1 TJE      -0.125000
     30 C23         10.2780    -5.4750    -3.0560 ca         1 TJE      -0.105000
     31 C24          6.4620    -3.0720    -6.0600 c          1 TJE       0.991600
     32 O5           7.6190    -2.6840    -6.6200 o          1 TJE      -0.901300
     33 O6           5.4580    -3.1360    -6.7300 o          1 TJE      -0.901300
     34 O7           4.0220    -1.5950    -5.3840 o          1 TJE      -0.609500
     35 H10         -1.0420    -1.0140     1.5560 hc         1 TJE       0.009367
     36 H11         -1.6410     0.6150     1.2100 hc         1 TJE       0.009367
     37 H12         -0.1200     0.3990     2.0880 hc         1 TJE       0.009367
     38 H9          -1.6730    -0.0480    -1.1680 hn         1 TJE       0.149500
     39 H8          -0.6450     0.0190    -3.2590 h1         1 TJE       0.015700
     40 H6           1.5470     1.2240    -3.4050 hc         1 TJE       0.073200
     41 H7           1.5820     1.3040    -1.6390 hc         1 TJE       0.073200
     42 H3           0.0250     2.7070    -0.4170 ha         1 TJE       0.117500
     43 H4          -0.0540     2.5230    -4.6830 ha         1 TJE       0.117500
     44 H2          -1.4040     4.7140    -0.4740 ha         1 TJE       0.102000
     45 H5          -1.4830     4.5290    -4.7480 ha         1 TJE       0.102000
     46 H1          -1.7830     6.6210    -2.7320 ho         1 TJE       0.391000
     47 H13          1.1110    -1.1540    -4.5540 hn         1 TJE       0.150500
     48 H14          2.1540    -3.3880    -2.8740 h1         1 TJE       0.056700
     49 H15          2.1580    -3.3820    -5.8840 hc         1 TJE      -0.007300
     50 H16          0.6450    -3.6740    -5.0140 hc         1 TJE      -0.007300
     51 H17          2.0280    -4.7500    -4.7690 hc         1 TJE      -0.007300
     52 H19          4.5900    -4.5030    -4.9700 hc         1 TJE       0.003200
     53 H20          5.0000    -4.3360    -3.2570 hc         1 TJE       0.003200
     54 H21          6.7160    -2.5720    -4.0060 hc         1 TJE       0.048700
     55 H22          7.2670    -4.9080    -3.2920 hc         1 TJE      -0.016300
     56 H23          7.1190    -5.4220    -4.9790 hc         1 TJE      -0.016300
     57 H24          8.9050    -3.8370    -5.6190 hc         1 TJE       0.067700
     58 H25          9.0530    -3.3220    -3.9330 hc         1 TJE       0.067700
     59 H26          9.6690    -6.0250    -6.3310 ha         1 TJE       0.113500
     60 H27         11.1970    -7.9100    -5.8910 ha         1 TJE       0.081000
     61 H28         12.1500    -8.2240    -3.6380 ha         1 TJE       0.078000
     62 H29         11.5480    -6.6730    -1.8180 ha         1 TJE       0.081000
     63 H30         10.1520    -4.7650    -2.2470 ha         1 TJE       0.113500
@<TRIPOS>BOND
     1     1     2 2   
     2     1     3 1   
     3     1     4 1   
     4     3    35 1   
     5     3    36 1   
     6     3    37 1   
     7     4     5 1   
     8     4    38 1   
     9     5     6 1   
    10     5     8 1   
    11     5    39 1   
    12     6     7 2   
    13     6    16 1   
    14     8     9 1   
    15     8    40 1   
    16     8    41 1   
    17     9    10 ar  
    18     9    11 ar  
    19    10    12 ar  
    20    10    42 1   
    21    11    13 ar  
    22    11    43 1   
    23    12    14 ar  
    24    12    44 1   
    25    13    14 ar  
    26    13    45 1   
    27    14    15 1   
    28    15    46 1   
    29    16    17 1   
    30    16    47 1   
    31    17    18 1   
    32    17    19 1   
    33    17    48 1   
    34    18    49 1   
    35    18    50 1   
    36    18    51 1   
    37    19    20 1   
    38    19    21 1   
    39    19    34 1   
    40    21    22 1   
    41    21    52 1   
    42    21    53 1   
    43    22    23 1   
    44    22    31 1   
    45    22    54 1   
    46    23    24 1   
    47    23    55 1   
    48    23    56 1   
    49    24    25 1   
    50    24    57 1   
    51    24    58 1   
    52    25    26 ar  
    53    25    30 ar  
    54    26    27 ar  
    55    26    59 1   
    56    27    28 ar  
    57    27    60 1   
    58    28    29 ar  
    59    28    61 1   
    60    29    30 ar  
    61    29    62 1   
    62    30    63 1   
    63    31    32 1   
    64    31    33 1   
@<TRIPOS>SUBSTRUCTURE
     1 TJE         1 TEMP              0 ****  ****    0 ROOT
