@<TRIPOS>MOLECULE
molecule
   52    55     1     0     0
SMALL
bcc


@<TRIPOS>ATOM
      1 C01          0.0000     0.0000     0.0000 c3         1 TJF       0.259100
      2 N02          1.4660     0.0000     0.0000 nu         1 TJF      -0.870900
      3 C03          2.1560     0.0000     1.1950 cc         1 TJF       0.697300
      4 N04          1.6040     0.0010     2.3730 nd         1 TJF      -0.792000
      5 C05          2.4070     0.0000     3.4100 cd         1 TJF       0.501600
      6 C06          1.9070     0.0000     4.8320 c3         1 TJF      -0.145400
      7 C07          3.7230    -0.0000     3.0950 cc         1 TJF      -0.329900
      8 C08          4.8410     0.0000     4.0490 ca         1 TJF       0.656800
      9 N09          4.6140    -0.0000     5.3630 nb         1 TJF      -0.744000
     10 C10          5.6190    -0.0000     6.2230 ca         1 TJF       0.925900
     11 C11          7.3720    -0.4620    10.6180 ca         1 TJF      -0.100600
     12 N11          5.3420    -0.0000     7.5770 nu         1 TJF      -0.755300
     13 C12          6.3810     0.1200     8.5040 ca         1 TJF       0.042600
     14 C13          7.4640     0.9480     8.2320 ca         1 TJF      -0.105000
     15 C14          8.4960     1.0670     9.1430 ca         1 TJF      -0.131000
     16 C15          8.4540     0.3720    10.3340 ca         1 TJF      -0.082000
     17 C19          7.3230    -4.4810    10.5230 c3         1 TJF       0.114400
     18 O19          7.2170    -5.2370    11.7320 os         1 TJF      -0.405600
     19 C20          6.5270    -3.1790    10.6710 c3         1 TJF       0.039500
     20 N21          6.9650    -2.5060    11.9030 n          1 TJF      -0.485800
     21 O24          7.6080    -0.6470    12.9360 o          1 TJF      -0.593100
     22 C25          6.9990    -3.2910    13.1470 c3         1 TJF       0.039500
     23 C26          7.7710    -4.5890    12.8790 c3         1 TJF       0.114400
     24 C27          6.3330    -0.5870     9.6960 ca         1 TJF      -0.203000
     25 N28          6.8870    -0.0010     5.8280 nb         1 TJF      -0.822000
     26 C29          7.2040    -0.0010     4.5460 ca         1 TJF       0.532200
     27 C30          6.1820    -0.0070     3.5910 ca         1 TJF      -0.329600
     28 C31          6.4820    -0.0140     2.1910 cg         1 TJF       0.253800
     29 N32          6.7100    -0.0360     1.0780 n1         1 TJF      -0.357800
     30 S33          3.8600    -0.0070     1.3390 ss         1 TJF      -0.202300
     31 H01         -0.6800    -0.3980     0.7430 h1         1 TJF       0.043033
     32 H01A        -0.2900     0.8460    -0.6110 h1         1 TJF       0.043033
     33 H01B        -0.2570    -0.6460    -0.8300 h1         1 TJF       0.043033
     34 HN02         2.2020     0.1440    -0.6620 hn         1 TJF       0.468800
     35 H06          0.8560    -0.0240     4.5700 hc         1 TJF       0.081700
     36 H06A         2.5290     0.3860     5.6310 hc         1 TJF       0.081700
     37 H06B         2.0100    -1.0770     4.8850 hc         1 TJF       0.081700
     38 HN11         5.7380    -0.5480     8.3150 hn         1 TJF       0.546800
     39 H13          7.4640     1.5900     7.3590 ha         1 TJF       0.162000
     40 H14          9.2720     1.7380     8.7930 ha         1 TJF       0.145000
     41 H15          9.3020     0.6920    10.9270 ha         1 TJF       0.156000
     42 H19A         6.8810    -4.9850     9.6720 h1         1 TJF       0.063450
     43 H20          5.5050    -3.5290    10.7470 h1         1 TJF       0.071950
     44 H20A         6.5990    -2.8080     9.6560 h1         1 TJF       0.071950
     45 H25          5.9870    -3.3810    13.5230 h1         1 TJF       0.071950
     46 H25A         7.4780    -2.4800    13.6830 h1         1 TJF       0.071950
     47 H26          7.2960    -5.0500    13.7360 h1         1 TJF       0.063450
     48 H26A         8.8140    -4.2970    12.8620 h1         1 TJF       0.063450
     49 H27          5.6860    -1.4050     9.9890 ha         1 TJF       0.169000
     50 H29          8.2220    -0.0600     4.1800 h4         1 TJF       0.037100
     51 C22          7.3240    -1.2060    11.8940 c          1 TJF       0.676700
     52 H19          8.3570    -4.4960    10.1990 h1         1 TJF       0.063450
@<TRIPOS>BOND
     1     1     2 1
     2     2     3 1
     3     3     4 2
     4     3    30 1
     5     4     5 1
     6     5     6 1
     7     5     7 2
     8     7     8 1
     9     7    30 1
    10     8     9 ar
    11     8    27 ar
    12     9    10 ar
    13    10    12 1
    14    10    25 ar
    15    11    16 ar
    16    11    51 1
    17    11    24 ar
    18    12    13 1
    19    13    14 ar
    20    13    24 ar
    21    14    15 ar
    22    15    16 ar
    23    17    18 1
    24    17    19 1
    25    18    23 1
    26    19    20 1
    27    20    51 1
    28    20    22 1
    29    51    21 2
    30    22    23 1
    31    25    26 ar
    32    26    27 ar
    33    27    28 1
    34    28    29 3
    35     1    31 1
    36     1    32 1
    37     1    33 1
    38     2    34 1
    39     6    35 1
    40     6    36 1
    41     6    37 1
    42    12    38 1
    43    14    39 1
    44    15    40 1
    45    16    41 1
    46    17    52 1
    47    17    42 1
    48    19    43 1
    49    19    44 1
    50    22    45 1
    51    22    46 1
    52    23    47 1
    53    23    48 1
    54    24    49 1
    55    26    50 1
@<TRIPOS>SUBSTRUCTURE
     1 TJF         1 TEMP              0 ****  ****    0 ROOT
