@<TRIPOS>MOLECULE
TJF
   52    56     1     0     0
SMALL
bcc


@<TRIPOS>ATOM
      1 C01          0.0000     0.0000     0.0000 c3         1 TJF      -0.048000
      2 N02          1.4660     0.0000     0.0000 nu         1 TJF       0.118000
      3 C03          2.1560     0.0000     1.1950 c2         1 TJF      -0.213000
      4 N04          1.6040     0.0010     2.3730 n2         1 TJF      -0.167000
      5 C05          2.4070     0.0000     3.4100 c2         1 TJF       0.049000
      6 C06          1.9070     0.0000     4.8320 c3         1 TJF      -0.099000
      7 C07          3.7230    -0.0000     3.0950 c2         1 TJF      -0.409000
      8 C08          4.8410     0.0000     4.0490 c2         1 TJF       0.182000
      9 N09          4.6140    -0.0000     5.3630 n2         1 TJF      -0.102000
     10 C10          5.6190    -0.0000     6.2230 c2         1 TJF       0.065000
     11 C11          7.3720    -0.4620    10.6180 c2         1 TJF      -0.081000
     12 N11          5.3420    -0.0000     7.5770 nu         1 TJF      -0.124000
     13 C12          6.3810     0.1200     8.5040 c3         1 TJF      -0.056000
     14 C13          7.4640     0.9480     8.2320 c2         1 TJF      -0.104000
     15 C14          8.4960     1.0670     9.1430 c2         1 TJF      -0.097000
     16 C15          8.4540     0.3720    10.3340 c2         1 TJF      -0.053000
     17 C19          7.3230    -4.4810    10.5230 c3         1 TJF       0.039000
     18 O19          7.2170    -5.2370    11.7320 os         1 TJF      -0.247000
     19 C20          6.5270    -3.1790    10.6710 c3         1 TJF      -0.146500
     20 N21          6.9650    -2.5060    11.9030 n          1 TJF      -0.002000
     21 O24          7.6080    -0.6470    12.9360 o          1 TJF      -0.394000
     22 C25          6.9990    -3.2910    13.1470 c3         1 TJF      -0.146500
     23 C26          7.7710    -4.5890    12.8790 c3         1 TJF       0.039000
     24 C27          6.3330    -0.5870     9.6960 c2         1 TJF      -0.200000
     25 N28          6.8870    -0.0010     5.8280 n2         1 TJF      -0.186000
     26 C29          7.2040    -0.0010     4.5460 c2         1 TJF       0.049000
     27 C30          6.1820    -0.0070     3.5910 c2         1 TJF      -0.139000
     28 C31          6.4820    -0.0140     2.1910 c1         1 TJF      -0.083000
     29 N32          6.7100    -0.0360     1.0780 n1         1 TJF      -0.038000
     30 S33          3.8600    -0.0070     1.3390 ss         1 TJF       0.284000
     31 H01         -0.6800    -0.3980     0.7430 h1         1 TJF       0.047667
     32 H01A        -0.2900     0.8460    -0.6110 h1         1 TJF       0.047667
     33 H01B        -0.2570    -0.6460    -0.8300 h1         1 TJF       0.047667
     34 HN02         2.2020     0.1440    -0.6620 hn         1 TJF       0.110000
     35 H06          0.8560    -0.0240     4.5700 hc         1 TJF       0.086000
     36 H06A         2.5290     0.3860     5.6310 hc         1 TJF       0.086000
     37 H06B         2.0100    -1.0770     4.8850 hc         1 TJF       0.086000
     38 HN11         5.7380    -0.5480     8.3150 DU         1 TJF       0.263000
     39 H13          7.4640     1.5900     7.3590 ha         1 TJF       0.132000
     40 H14          9.2720     1.7380     8.7930 ha         1 TJF       0.113000
     41 H15          9.3020     0.6920    10.9270 ha         1 TJF       0.124000
     42 H19A         6.8810    -4.9850     9.6720 h1         1 TJF       0.063250
     43 H20          5.5050    -3.5290    10.7470 h1         1 TJF       0.087750
     44 H20A         6.5990    -2.8080     9.6560 h1         1 TJF       0.087750
     45 H25          5.9870    -3.3810    13.5230 h1         1 TJF       0.087750
     46 H25A         7.4780    -2.4800    13.6830 h1         1 TJF       0.087750
     47 H26          7.2960    -5.0500    13.7360 h1         1 TJF       0.063250
     48 H26A         8.8140    -4.2970    12.8620 h1         1 TJF       0.063250
     49 H27          5.6860    -1.4050     9.9890 ha         1 TJF       0.152000
     50 H29          8.2220    -0.0600     4.1800 h4         1 TJF       0.128000
     51 C22          7.3240    -1.2060    11.8940 c2         1 TJF       0.285000
     52 H19          8.3570    -4.4960    10.1990 h1         1 TJF       0.063250
@<TRIPOS>BOND
     1     1     2 1   
     2     1    31 1   
     3     1    32 1   
     4     1    33 1   
     5     2     3 1   
     6     2    34 1   
     7     3     4 1   
     8     3    30 1   
     9     4     5 1   
    10     5     6 1   
    11     5     7 1   
    12     6    35 1   
    13     6    36 1   
    14     6    37 1   
    15     7     8 1   
    16     7    30 1   
    17     8     9 1   
    18     8    27 1   
    19     9    10 1   
    20    10    12 1   
    21    10    25 1   
    22    11    16 1   
    23    11    24 1   
    24    11    51 1   
    25    12    13 1   
    26    12    38 1   
    27    13    14 1   
    28    13    24 1   
    29    13    38 1   
    30    14    15 1   
    31    14    39 1   
    32    15    16 1   
    33    15    40 1   
    34    16    41 1   
    35    17    18 1   
    36    17    19 1   
    37    17    42 1   
    38    17    52 1   
    39    18    23 1   
    40    19    20 1   
    41    19    43 1   
    42    19    44 1   
    43    20    22 1   
    44    20    51 1   
    45    21    51 1   
    46    22    23 1   
    47    22    45 1   
    48    22    46 1   
    49    23    47 1   
    50    23    48 1   
    51    24    49 1   
    52    25    26 1   
    53    26    27 1   
    54    26    50 1   
    55    27    28 1   
    56    28    29 1   
@<TRIPOS>SUBSTRUCTURE
     1 TJF         1 TEMP              0 ****  ****    0 ROOT
