@<TRIPOS>MOLECULE
TJH
   54    58     1     0     0
SMALL
bcc


@<TRIPOS>ATOM
      1 OAB          0.0000     0.0000     0.0000 o          1 TJH      -0.555100
      2 CBB          1.2150     0.0000     0.0000 c          1 TJH       0.646900
      3 CBE          1.9590     0.0000     1.2770 ca         1 TJH      -0.124600
      4 CAH          1.2860    -0.0000     2.4930 ca         1 TJH      -0.073000
      5 CAE          2.0020     0.0000     3.6810 ca         1 TJH      -0.067000
      6 CAF          3.3810     0.0010     3.6680 ca         1 TJH      -0.157000
      7 CAV          4.0740     0.0020     2.4560 ca         1 TJH       0.184100
      8 OAC          5.4300     0.0030     2.4480 oh         1 TJH      -0.457100
      9 CBF          3.3660     0.0000     1.2560 ca         1 TJH      -0.161600
     10 CBA          4.0740     0.0000    -0.0410 c          1 TJH       0.643900
     11 OAA          5.2910     0.0010    -0.0680 o          1 TJH      -0.545100
     12 CAJ          3.3140    -0.0010    -1.2900 cc         1 TJH      -0.344200
     13 CAX          1.9620    -0.0060    -1.2810 cd         1 TJH      -0.034200
     14 NAS          1.2700    -0.0070    -2.4740 nu         1 TJH      -0.362000
     15 CAN          2.0010    -0.0040    -3.7440 c3         1 TJH       0.143800
     16 CAO          1.0050    -0.0070    -4.9050 c3         1 TJH       0.148800
     17 NAT          1.7390    -0.0030    -6.1790 nu         1 TJH      -0.476600
     18 CAZ          0.8700    -0.1240    -7.2520 ca         1 TJH       0.042600
     19 CAY          0.6200    -1.3650    -7.8300 ca         1 TJH      -0.166600
     20 CAQ          1.3340    -2.5580    -7.2520 c3         1 TJH       0.037900
     21 CAM          0.6530    -3.8540    -7.6860 c3         1 TJH      -0.029400
     22 CAL          0.4850    -3.8240    -9.2100 c3         1 TJH      -0.027400
     23 CAP         -0.5720    -2.7790    -9.5580 c3         1 TJH      -0.068700
     24 CAW         -0.2540    -1.4600    -8.8980 ca         1 TJH       0.403600
     25 NAR         -0.8530    -0.3860    -9.3850 nb         1 TJH      -0.572000
     26 CBC         -0.6600     0.8340    -8.8820 ca         1 TJH       0.388600
     27 CBD          0.2130     1.0090    -7.7820 ca         1 TJH      -0.174300
     28 CAI          0.4150     2.2900    -7.2510 ca         1 TJH      -0.086000
     29 CAG         -0.2310     3.3570    -7.8000 ca         1 TJH      -0.092000
     30 CAU         -1.0900     3.1900    -8.8840 ca         1 TJH      -0.031600
     31 Cl          -1.8940     4.5710    -9.5590 cl         1 TJH      -0.022400
     32 CAK         -1.3120     1.9560    -9.4210 ca         1 TJH      -0.135300
     33 H1           0.2030    -0.0010     2.5130 ha         1 TJH       0.125000
     34 H2           1.4740    -0.0010     4.6270 ha         1 TJH       0.107000
     35 H3           3.9290     0.0010     4.6020 ha         1 TJH       0.115000
     36 H4           5.7470     0.7220     2.9690 ho         1 TJH       0.402000
     37 H5           3.8420    -0.0050    -2.2360 ha         1 TJH       0.140000
     38 H6           0.2700    -0.0340    -2.4720 hn         1 TJH       0.306800
     39 H7           2.6260    -0.8870    -3.8030 h1         1 TJH       0.027200
     40 H8           2.6210     0.8820    -3.8020 h1         1 TJH       0.027200
     41 H9           0.3850    -0.8930    -4.8480 h1         1 TJH       0.018700
     42 H10          0.3800     0.8760    -4.8470 h1         1 TJH       0.018700
     43 H11          2.5780     0.5340    -6.2720 hn         1 TJH       0.295800
     44 H12          2.3600    -2.5610    -7.6000 hc         1 TJH       0.028700
     45 H13          1.3190    -2.4930    -6.1710 hc         1 TJH       0.028700
     46 H14         -0.3200    -3.9290    -7.2140 hc         1 TJH       0.017700
     47 H15          1.2680    -4.7000    -7.4040 hc         1 TJH       0.017700
     48 H16          1.4270    -3.5570    -9.6740 hc         1 TJH       0.018700
     49 H17          0.1630    -4.7980    -9.5590 hc         1 TJH       0.018700
     50 H18         -0.5970    -2.6430   -10.6330 hc         1 TJH       0.030700
     51 H19         -1.5400    -3.1240    -9.2150 hc         1 TJH       0.030700
     52 H20          1.0810     2.4310    -6.4080 ha         1 TJH       0.107000
     53 H21         -0.0740     4.3470    -7.3890 ha         1 TJH       0.115000
     54 H22         -1.9830     1.8420   -10.2630 ha         1 TJH       0.130000
@<TRIPOS>BOND
     1     1     2 2   
     2     2     3 1   
     3     2    13 1   
     4     3     4 ar  
     5     3     9 ar  
     6     4     5 ar  
     7     4    33 1   
     8     5     6 ar  
     9     5    34 1   
    10     6     7 ar  
    11     6    35 1   
    12     7     8 1   
    13     7     9 ar  
    14     8    36 1   
    15     9    10 1   
    16    10    11 2   
    17    10    12 1   
    18    12    13 2   
    19    12    37 1   
    20    13    14 1   
    21    14    15 1   
    22    14    38 1   
    23    15    16 1   
    24    15    39 1   
    25    15    40 1   
    26    16    17 1   
    27    16    41 1   
    28    16    42 1   
    29    17    18 1   
    30    17    43 1   
    31    18    19 ar  
    32    18    27 ar  
    33    19    20 1   
    34    19    24 ar  
    35    20    21 1   
    36    20    44 1   
    37    20    45 1   
    38    21    22 1   
    39    21    46 1   
    40    21    47 1   
    41    22    23 1   
    42    22    48 1   
    43    22    49 1   
    44    23    24 1   
    45    23    50 1   
    46    23    51 1   
    47    24    25 ar  
    48    25    26 ar  
    49    26    27 ar  
    50    26    32 ar  
    51    27    28 ar  
    52    28    29 ar  
    53    28    52 1   
    54    29    30 ar  
    55    29    53 1   
    56    30    31 1   
    57    30    32 ar  
    58    32    54 1   
@<TRIPOS>SUBSTRUCTURE
     1 TJH         1 TEMP              0 ****  ****    0 ROOT
