@<TRIPOS>MOLECULE
TJM
   27    28     1     0     0
SMALL
bcc


@<TRIPOS>ATOM
      1 C1           0.0000     0.0000     0.0000 c3         1 TJM       0.098200
      2 C2           1.5070     0.0000     0.0000 cc         1 TJM       0.048600
      3 C3           2.2720     0.0000     1.0880 cd         1 TJM      -0.132000
      4 C4           3.6440    -0.0000     0.8440 cd         1 TJM      -0.072000
      5 C5           3.9770    -0.0000    -0.4620 cc         1 TJM       0.010600
      6 C6           5.3840    -0.0010    -1.0010 c3         1 TJM       0.096200
      7 S7           2.5160    -0.0070    -1.4410 ss         1 TJM      -0.195800
      8 C8           4.6520    -0.0010     1.9280 cd         1 TJM      -0.216300
      9 C9           4.5910     0.7050     3.0970 cc         1 TJM      -0.142300
     10 C10          5.7730     0.3770     3.7960 cc         1 TJM       0.152800
     11 N11          6.4510    -0.4690     3.0450 nd         1 TJM      -0.670800
     12 N12          5.8170    -0.7090     1.9550 na         1 TJM       0.646400
     13 C13          6.1770     0.8870     5.1220 c          1 TJM       0.293600
     14 O14          5.4600     1.6680     5.7170 o          1 TJM      -0.433100
     15 N15          7.3400     0.4870     5.6740 nz         1 TJM       0.210600
     16 H11C        -0.3610     0.0020    -1.0210 hc         1 TJM       0.021033
     17 H12C        -0.3610     0.8840     0.5120 hc         1 TJM       0.021033
     18 H13C        -0.3610    -0.8850     0.5090 hc         1 TJM       0.021033
     19 H3           1.8590    -0.0000     2.0900 ha         1 TJM       0.132000
     20 H61C         5.8040    -0.9960    -0.9130 hc         1 TJM       0.014700
     21 H62C         5.3730     0.2960    -2.0430 hc         1 TJM       0.014700
     22 H63C         5.9890     0.6970    -0.4340 hc         1 TJM       0.014700
     23 H9           3.9490     1.5550     3.2960 ha         1 TJM       0.166000
     24 H12          6.1310    -1.3260     1.2320 hn         1 TJM       0.160700
     25 H151         7.3290    -0.5070     5.7910 hn         1 TJM       0.246133
     26 H152         7.4550     0.9260     6.5660 hn         1 TJM       0.246133
     27 H153         8.0990     0.7440     5.0750 hn         1 TJM       0.246133
@<TRIPOS>BOND
     1     1     2 1   
     2     1    16 1   
     3     1    17 1   
     4     1    18 1   
     5     2     3 2   
     6     2     7 1   
     7     3     4 1   
     8     3    19 1   
     9     4     5 2   
    10     4     8 1   
    11     5     6 1   
    12     5     7 1   
    13     6    20 1   
    14     6    21 1   
    15     6    22 1   
    16     8     9 2   
    17     8    12 1   
    18     9    10 1   
    19     9    23 1   
    20    10    11 2   
    21    10    13 1   
    22    11    12 1   
    23    12    24 1   
    24    13    14 2   
    25    13    15 1   
    26    15    25 1   
    27    15    26 1   
    28    15    27 1   
@<TRIPOS>SUBSTRUCTURE
     1 TJM         1 TEMP              0 ****  ****    0 ROOT
