@<TRIPOS>MOLECULE
molecule
   27    28     1     0     0
SMALL
bcc


@<TRIPOS>ATOM
      1 C1           0.0000     0.0000     0.0000 c3         1 TJM      -0.020800
      2 C2           1.5070     0.0000     0.0000 cc         1 TJM      -0.010400
      3 C3           2.2720     0.0000     1.0880 cd         1 TJM      -0.149000
      4 C4           3.6440    -0.0000     0.8440 cd         1 TJM      -0.091000
      5 C5           3.9770    -0.0000    -0.4620 cc         1 TJM      -0.027400
      6 C6           5.3840    -0.0010    -1.0010 c3         1 TJM      -0.026800
      7 S7           2.5160    -0.0070    -1.4410 ss         1 TJM      -0.060800
      8 C8           4.6520    -0.0010     1.9280 cd         1 TJM      -0.012300
      9 C9           4.5910     0.7050     3.0970 cc         1 TJM      -0.212300
     10 C10          5.7730     0.3770     3.7960 cc         1 TJM       0.185800
     11 N11          6.4510    -0.4690     3.0450 nd         1 TJM      -0.525800
     12 N12          5.8170    -0.7090     1.9550 na         1 TJM       0.087400
     13 C13          6.1770     0.8870     5.1220 c          1 TJM       0.448600
     14 O14          5.4600     1.6680     5.7170 o          1 TJM      -0.408100
     15 N15          7.3400     0.4870     5.6740 nz         1 TJM      -0.675400
     16 H11C        -0.3610     0.0020    -1.0210 hc         1 TJM       0.059033
     17 H12C        -0.3610     0.8840     0.5120 hc         1 TJM       0.059033
     18 H13C        -0.3610    -0.8850     0.5090 hc         1 TJM       0.059033
     19 H3           1.8590    -0.0000     2.0900 ha         1 TJM       0.158000
     20 H61C         5.8040    -0.9960    -0.9130 hc         1 TJM       0.053033
     21 H62C         5.3730     0.2960    -2.0430 hc         1 TJM       0.053033
     22 H63C         5.9890     0.6970    -0.4340 hc         1 TJM       0.053033
     23 H9           3.9490     1.5550     3.2960 ha         1 TJM       0.199000
     24 H12          6.1310    -1.3260     1.2320 hn         1 TJM       0.363700
     25 H151         7.3290    -0.5070     5.7910 hn         1 TJM       0.480800
     26 H152         7.4550     0.9260     6.5660 hn         1 TJM       0.480800
     27 H153         8.0990     0.7440     5.0750 hn         1 TJM       0.480800
@<TRIPOS>BOND
     1     1     2 1
     2     2     3 2
     3     2     7 1
     4     3     4 1
     5     4     5 2
     6     4     8 1
     7     5     6 1
     8     5     7 1
     9     8     9 2
    10     8    12 1
    11     9    10 1
    12    10    11 2
    13    10    13 1
    14    11    12 1
    15    13    14 2
    16    13    15 1
    17     1    16 1
    18     1    17 1
    19     1    18 1
    20     3    19 1
    21     6    20 1
    22     6    21 1
    23     6    22 1
    24     9    23 1
    25    12    24 1
    26    15    25 1
    27    15    26 1
    28    27    15 1
@<TRIPOS>SUBSTRUCTURE
     1 TJM         1 TEMP              0 ****  ****    0 ROOT
