@<TRIPOS>MOLECULE
TK1
   54    56     1     0     0
SMALL
bcc


@<TRIPOS>ATOM
      1 C1         -0.2240    0.0380    1.2420 c3        1 TK1     -0.934000
      2 C2         13.7330   -3.0950    6.7990 c1        1 TK1      0.302000
      3 C3         12.9220   -2.1940    6.2780 c2        1 TK1     -0.548000
      4 C4         11.7760   -0.2490    3.9940 c2        1 TK1     -0.167000
      5 C5          3.9330    0.9870    2.9460 ca        1 TK1     -0.205000
      6 C6          2.7050    3.1000    2.9410 ca        1 TK1     -0.205000
      7 C7          3.0720    0.5040    1.9680 ca        1 TK1      0.013500
      8 C8          1.8640    2.5900    1.9660 ca        1 TK1      0.013500
      9 C9         12.6670   -0.9230    6.9330 c1        1 TK1     -0.034000
     10 C10         6.5420    0.8710    6.7790 ca        1 TK1     -0.171000
     11 C11         6.7750    2.0840    4.1760 ca        1 TK1     -0.049000
     12 C12        -0.5810    0.7710   10.8590 c2        1 TK1     -0.111000
     13 C13         0.4830    1.0950   10.1220 c2        1 TK1     -0.230000
     14 C15         3.7450    2.2870    3.4360 ca        1 TK1      0.140000
     15 C16         2.0210    1.2860    1.4690 ca        1 TK1     -0.878000
     16 C17        11.2220    0.0760    5.1780 c2        1 TK1     -0.031000
     17 C18         5.4470    1.5240    6.1990 ca        1 TK1      0.058000
     18 C19         7.7380    0.8210    6.0610 ca        1 TK1      0.007000
     19 C20         7.8740    1.4270    4.7460 ca        1 TK1     -0.101000
     20 C21         5.5940    2.1140    4.9050 ca        1 TK1     -0.020000
     21 C22         9.8150    0.5290    5.2350 c2        1 TK1      0.024000
     22 C23         2.9740    0.6940    8.6450 c2        1 TK1     -0.053000
     23 C24         0.5200    0.8000    8.6720 c2        1 TK1      0.339000
     24 N25         8.9850    0.2700    6.3560 na        1 TK1     -0.235000
     25 N26        11.9190    0.0300    6.4240 n3        1 TK1     -0.174000
     26 N27         9.1810    1.2260    4.2660 n2        1 TK1     -0.110000
     27 N28         1.7600    0.7150    8.0170 n         1 TK1     -0.323000
     28 O30        -0.4990    0.6250    7.9810 o         1 TK1     -0.322000
     29 O31         1.6340   -0.3420   -0.4210 o         1 TK1     -0.940500
     30 O32         0.4710    1.7560   -0.4690 o         1 TK1     -0.940500
     31 S34         1.0080    0.6990    0.2820 s6        1 TK1      2.868000
     32 H1         -0.6960    0.7850    1.9250 h1        1 TK1      0.151000
     33 H1A         0.1280   -0.8050    1.8840 h1        1 TK1      0.151000
     34 H1B        -1.0500   -0.3730    0.6080 h1        1 TK1      0.151000
     35 H2         12.8250   -0.5600    3.8970 ha        1 TK1      0.142000
     36 H3         12.4220   -2.4370    5.3140 ha        1 TK1      0.182000
     37 H4         11.1990   -0.2090    3.0600 ha        1 TK1      0.142000
     38 H5          4.7570    0.3650    3.3250 ha        1 TK1      0.159500
     39 H6          2.5840    4.1230    3.3260 ha        1 TK1      0.159500
     40 H7          3.2240   -0.5130    1.5620 ha        1 TK1      0.157000
     41 H8          1.0580    3.2250    1.5550 ha        1 TK1      0.157000
     42 H9         11.8220    0.8590    6.9790 hn        1 TK1      0.257000
     43 H10         6.4500    0.4180    7.7750 ha        1 TK1      0.146000
     44 H11         6.8460    2.5600    3.1870 ha        1 TK1      0.165000
     45 H12        -0.6350    0.9990   11.9330 ha        1 TK1      0.136000
     46 H12A        3.0690    0.5220    9.7320 h5        1 TK1      0.207000
     47 H13         1.3510    1.6200   10.5490 ha        1 TK1      0.141000
     48 H13A       -1.4600    0.2630   10.4330 ha        1 TK1      0.136000
     49 H14         3.3220    2.1090    6.4000 h4        1 TK1      0.167000
     50 H14A        1.7400    0.5850    7.0240 hn        1 TK1      0.254000
     51 HN25        9.2120   -0.2790    7.1410 hn        1 TK1      0.263000
     52 O33         4.5240    2.8750    4.4130 os        1 TK1     -0.150000
     53 C14         4.1900    1.6370    6.8640 c2        1 TK1     -0.302000
     54 O29         4.1120    1.1380    8.1100 os        1 TK1      0.045000
@<TRIPOS>BOND
     1    1   31 1   
     2    1   32 1   
     3    1   33 1   
     4    1   34 1   
     5    2    3 1   
     6    3    9 1   
     7    3   36 1   
     8    4   16 1   
     9    4   35 1   
    10    4   37 1   
    11    5    7 1   
    12    5   14 1   
    13    5   38 1   
    14    6    8 1   
    15    6   14 1   
    16    6   39 1   
    17    7   15 1   
    18    7   40 1   
    19    8   15 1   
    20    8   41 1   
    21    9   25 1   
    22   10   17 1   
    23   10   18 1   
    24   10   43 1   
    25   11   19 1   
    26   11   20 1   
    27   11   44 1   
    28   12   13 1   
    29   12   45 1   
    30   12   48 1   
    31   13   23 1   
    32   13   47 1   
    33   14   52 1   
    34   15   31 1   
    35   16   21 1   
    36   16   25 1   
    37   17   20 1   
    38   17   53 1   
    39   18   19 1   
    40   18   24 1   
    41   19   26 1   
    42   20   52 1   
    43   21   24 1   
    44   21   26 1   
    45   22   27 1   
    46   22   46 1   
    47   22   54 1   
    48   23   27 1   
    49   23   28 1   
    50   24   51 1   
    51   25   42 1   
    52   27   50 1   
    53   29   31 1   
    54   30   31 1   
    55   49   53 1   
    56   53   54 1   
@<TRIPOS>SUBSTRUCTURE
     1 TK1         1 TEMP              0 ****  ****    0 ROOT
