@<TRIPOS>MOLECULE
molecule
   54    58     1     0     0
SMALL
bcc


@<TRIPOS>ATOM
      1 C1           0.0000     0.0000     0.0000 c3         1 TK1      -0.226300
      2 C2          11.6510    -1.0710     4.3130 ca         1 TK1      -0.087000
      3 C3          12.5400    -1.0410     5.3780 ca         1 TK1      -0.238300
      4 C4          10.3510    -0.6450     4.5250 ca         1 TK1      -0.287300
      5 C5           2.7690     0.6010     3.8560 ca         1 TK1      -0.179000
      6 C6           2.7700     2.7450     2.7730 ca         1 TK1      -0.179000
      7 C7           2.4250     0.0000     2.6610 ca         1 TK1      -0.017500
      8 C8           2.4250     2.1400     1.5800 ca         1 TK1      -0.017500
      9 C9          12.1070    -0.5870     6.6120 ca         1 TK1       0.441200
     10 C10          6.4850     1.8070     7.2850 ca         1 TK1      -0.078000
     11 C11          5.6960     1.0860     4.7080 ca         1 TK1      -0.089000
     12 C12          1.9090     0.4480     9.9550 c3         1 TK1      -0.181400
     13 C13          1.0200     0.6850     8.7170 c3         1 TK1      -0.181400
     14 C15          2.9410     1.9760     3.9160 ca         1 TK1       0.159100
     15 C16          2.2520     0.7690     1.5240 ca         1 TK1      -0.318500
     16 C17          9.9830    -0.2010     5.7950 ca         1 TK1       0.398000
     17 C18          5.2340     2.1490     6.8170 ca         1 TK1      -0.114300
     18 C19          7.3590     1.1010     6.4710 ca         1 TK1      -0.115200
     19 C20          6.9690     0.7330     5.1710 ca         1 TK1       0.137400
     20 C21          4.8400     1.7890     5.5300 ca         1 TK1       0.112100
     21 C22          8.9950    -0.0060     5.4720 cc         1 TK1       0.466800
     22 C23          3.1340     1.2920     9.6780 c          1 TK1       0.703500
     23 C24          1.8370     1.6380     7.8710 c          1 TK1       0.703500
     24 N25          8.6440     0.6210     6.6360 na         1 TK1      -0.297300
     25 N26         10.8650    -0.1870     6.7870 nb         1 TK1      -0.695000
     26 N27          8.0070     0.0630     4.6150 nd         1 TK1      -0.594100
     27 N28          2.9890     1.9060     8.4980 n          1 TK1      -0.554400
     28 O30          1.5020     2.0860     6.7960 o          1 TK1      -0.597500
     29 O31          2.3130    -1.3260     0.1200 o          1 TK1      -0.621800
     30 O32          2.3130     0.8830    -0.9950 o          1 TK1      -0.621800
     31 S34          1.8140     0.0000     0.0000 sy         1 TK1       1.193300
     32 H1          -0.3610     1.0060     0.1790 h1         1 TK1       0.097700
     33 H1A         -0.3610    -0.3480    -0.9600 h1         1 TK1       0.097700
     34 H1B         -0.3610    -0.6580     0.7810 h1         1 TK1       0.097700
     35 H2          11.9670    -1.4220     3.3380 ha         1 TK1       0.146000
     36 H3          13.5640    -1.3680     5.2450 ha         1 TK1       0.146000
     37 H4           9.6310    -0.6550     3.7170 ha         1 TK1       0.202000
     38 H5           2.9030    -0.0010     4.7460 ha         1 TK1       0.147000
     39 H6           2.9050     3.8190     2.8170 ha         1 TK1       0.147000
     40 H7           2.2890    -1.0740     2.6140 ha         1 TK1       0.150500
     41 H8           2.2900     2.7390     0.6880 ha         1 TK1       0.150500
     42 H9          12.7990    -0.5610     7.4450 h4         1 TK1       0.034100
     43 H10          6.8050     2.1370     8.2660 ha         1 TK1       0.152000
     44 H11          5.3850     0.8090     3.7080 ha         1 TK1       0.169000
     45 H12          2.1790    -0.5990    10.0340 hc         1 TK1       0.081450
     46 H12A         1.4080     0.7880    10.8530 hc         1 TK1       0.081450
     47 H13          0.8530    -0.2450     8.1860 hc         1 TK1       0.081450
     48 H13A         0.0820     1.1420     9.0050 hc         1 TK1       0.081450
     49 H14          4.8480     3.4080     8.4900 h1         1 TK1       0.085200
     50 H14A         3.7650     3.6610     7.1140 h1         1 TK1       0.085200
     51 HN25         9.1570     0.5960     7.4950 hn         1 TK1       0.349700
     52 O33          3.2800     2.5690     5.0910 os         1 TK1      -0.255200
     53 C14          4.2880     2.9170     7.7030 c3         1 TK1       0.244300
     54 O29          4.0960     1.3940    10.4090 o          1 TK1      -0.597500
@<TRIPOS>BOND
     1     1    31 1
     2     2     3 ar
     3     2     4 ar
     4     3     9 ar
     5     4    16 ar
     6     5     7 ar
     7     5    14 ar
     8     6     8 ar
     9     6    14 ar
    10     7    15 ar
    11     8    15 ar
    12     9    25 ar
    13    10    17 ar
    14    10    18 ar
    15    11    19 ar
    16    11    20 ar
    17    12    13 1
    18    12    22 1
    19    13    23 1
    20    53    17 1
    21    53    27 1
    22    14    52 1
    23    15    31 1
    24    16    21 1
    25    16    25 ar
    26    17    20 ar
    27    18    19 ar
    28    18    24 1
    29    19    26 1
    30    20    52 1
    31    21    24 1
    32    21    26 2
    33    22    27 1
    34    22    54 2
    35    23    27 1
    36    23    28 2
    37    29    31 2
    38    30    31 2
    39     1    32 1
    40     1    33 1
    41     1    34 1
    42     2    35 1
    43     3    36 1
    44     4    37 1
    45     5    38 1
    46     6    39 1
    47     7    40 1
    48     8    41 1
    49     9    42 1
    50    10    43 1
    51    11    44 1
    52    12    45 1
    53    12    46 1
    54    13    47 1
    55    13    48 1
    56    53    49 1
    57    53    50 1
    58    24    51 1
@<TRIPOS>SUBSTRUCTURE
     1 TK1         1 TEMP              0 ****  ****    0 ROOT
