@<TRIPOS>MOLECULE
TK4
   31    32     1     0     0
SMALL
bcc


@<TRIPOS>ATOM
      1 C1           0.0000     0.0000     0.0000 ca         1 TK4      -0.126500
      2 C2           1.3760     0.0000     0.0000 ca         1 TK4      -0.020400
      3 C3           2.0900     0.0000     1.2030 ca         1 TK4      -0.148000
      4 C4           1.4440    -0.0050     2.3980 ca         1 TK4      -0.079000
      5 C5          -0.6550    -0.0160     3.6570 ca         1 TK4      -0.078500
      6 C6          -2.0160    -0.0210     3.6580 ca         1 TK4      -0.026000
      7 C7          -2.7350    -0.0220     2.4650 ca         1 TK4      -0.243000
      8 C8          -2.0970    -0.0170     1.2630 ca         1 TK4      -0.025000
      9 C9          -0.6910    -0.0110     1.2210 ca         1 TK4       0.051000
     10 C10          0.0390    -0.0110     2.4350 ca         1 TK4       0.013000
     11 S1          -0.8880     0.0000    -1.5220 s6         1 TK4       1.046100
     12 O11         -1.2750    -1.4400    -1.8240 o          1 TK4      -0.673867
     13 O12         -2.1070     0.6790    -1.2580 o          1 TK4      -0.673867
     14 O13          0.0560     0.3640    -2.5190 o          1 TK4      -0.673867
     15 N2           2.0680     0.0070    -1.2160 ns         1 TK4      -0.018100
     16 C21          3.1340     0.8140    -1.3810 c          1 TK4       0.554100
     17 O2           3.4430     1.5960    -0.5060 o          1 TK4      -0.688100
     18 C22          3.9420     0.7470    -2.6510 c3         1 TK4      -0.066100
     19 S5           0.2310    -0.0170     5.1790 s6         1 TK4       1.040100
     20 O51          0.6480    -1.4530     5.4630 o          1 TK4      -0.669867
     21 O52          1.4360     0.6910     4.9240 o          1 TK4      -0.669867
     22 O53         -0.7200     0.3140     6.1810 o          1 TK4      -0.669867
     23 H3           3.1730    -0.0000     1.1820 ha         1 TK4       0.104000
     24 H4           2.0110    -0.0050     3.3210 ha         1 TK4       0.191000
     25 H6          -2.7800    -0.0350     4.4260 ha         1 TK4       0.095000
     26 H7          -3.8150     0.0100     2.5370 ha         1 TK4       0.077000
     27 H8          -3.0120    -0.2230     0.7210 ha         1 TK4       0.140000
     28 HN2          1.7490    -0.5610    -1.9760 hn         1 TK4       0.217500
     29 H221         3.4640     1.3490    -3.4150 hc         1 TK4       0.007700
     30 H222         4.0020    -0.2810    -2.9870 hc         1 TK4       0.007700
     31 H223         4.9400     1.1250    -2.4650 hc         1 TK4       0.007700
@<TRIPOS>BOND
     1     1     2 ar  
     2     1     9 ar  
     3     1    11 1   
     4     2     3 ar  
     5     2    15 1   
     6     3     4 ar  
     7     3    23 1   
     8     4    10 ar  
     9     4    24 1   
    10     5     6 ar  
    11     5    10 ar  
    12     5    19 1   
    13     6     7 ar  
    14     6    25 1   
    15     7     8 ar  
    16     7    26 1   
    17     8     9 ar  
    18     8    27 1   
    19     9    10 ar  
    20    11    12 1   
    21    11    13 1   
    22    11    14 1   
    23    15    16 1   
    24    15    28 1   
    25    16    17 2   
    26    16    18 1   
    27    18    29 1   
    28    18    30 1   
    29    18    31 1   
    30    19    20 1   
    31    19    21 1   
    32    19    22 1   
@<TRIPOS>SUBSTRUCTURE
     1 TK4         1 TEMP              0 ****  ****    0 ROOT
