@<TRIPOS>MOLECULE
molecule
   41    44     1     0     0
SMALL
bcc


@<TRIPOS>ATOM
      1 C12          0.0000     0.0000     0.0000 cc         1 TKT      -0.214400
      2 O4          -2.0850     0.0010    -1.0310 o          1 TKT      -0.557000
      3 C9          -0.8780     0.0010    -1.1750 c          1 TKT       0.666300
      4 C11          1.3640     0.0000     0.0000 cd         1 TKT      -0.038100
      5 O3          -0.3460     0.0020    -2.4140 os         1 TKT      -0.425900
      6 C7           0.8190    -1.8080    -3.4880 c3         1 TKT      -0.112400
      7 C6           1.4150    -0.4740    -3.9820 c3         1 TKT      -0.112400
      8 N1           0.0390    -1.3920    -5.7120 n3         1 TKT      -0.696600
      9 C5           0.5630    -0.0930    -5.2160 c3         1 TKT       0.152000
     10 C4          -0.6400     0.7250    -4.7210 c3         1 TKT      -0.075900
     11 C1          -0.3370    -2.1130    -4.4670 c3         1 TKT       0.152000
     12 C2          -1.6060    -1.4410    -3.9190 c3         1 TKT      -0.075900
     13 C3          -1.2750     0.0020    -3.5300 c3         1 TKT       0.151100
     14 C13         -0.5310     0.0130     4.1790 ca         1 TKT      -0.108000
     15 C15          0.7690     0.0020     2.1650 ca         1 TKT      -0.053200
     16 C16         -0.4180     0.0040     1.4150 ca         1 TKT      -0.054800
     17 C17         -1.6510     0.0110     2.0580 ca         1 TKT      -0.071000
     18 C18         -1.7030     0.0150     3.4360 ca         1 TKT      -0.151000
     19 N10          1.8230     0.0000     1.2740 na         1 TKT      -0.168400
     20 C21          0.6970     0.0070     3.5540 ca         1 TKT      -0.142000
     21 H11          1.9880     0.0010    -0.8860 h4         1 TKT       0.179000
     22 H81C         0.6800    -3.0900    -6.7620 h1         1 TKT       0.032700
     23 H82C         1.9360    -2.2780    -5.8180 h1         1 TKT       0.032700
     24 H83C         1.3630    -1.5590    -7.3290 h1         1 TKT       0.032700
     25 H10          2.7890    -0.0000     1.5340 hn         1 TKT       0.299700
     26 H3          -2.1850     0.5150    -3.2420 h1         1 TKT       0.073700
     27 H71C         1.5650    -2.5920    -3.5300 hc         1 TKT       0.052700
     28 H72C         0.4400    -1.7010    -2.4790 hc         1 TKT       0.052700
     29 H61C         1.3270     0.2850    -3.2150 hc         1 TKT       0.052700
     30 H62C         2.4520    -0.6060    -4.2670 hc         1 TKT       0.052700
     31 H1          -0.4690    -3.1760    -4.6300 h1         1 TKT       0.069700
     32 H5           1.1400     0.4330    -5.9670 h1         1 TKT       0.069700
     33 H41C        -1.3670     0.8200    -5.5190 hc         1 TKT       0.061200
     34 H42C        -0.3080     1.7090    -4.4140 hc         1 TKT       0.061200
     35 H21C        -2.3770    -1.4450    -4.6810 hc         1 TKT       0.061200
     36 H22C        -1.9560    -1.9810    -3.0470 hc         1 TKT       0.061200
     37 H13         -0.5820     0.0160     5.2610 ha         1 TKT       0.132000
     38 H18         -2.6610     0.0200     3.9410 ha         1 TKT       0.134000
     39 H21          1.6060     0.0050     4.1440 ha         1 TKT       0.126000
     40 H17         -2.5670     0.0130     1.4800 ha         1 TKT       0.157000
     41 C8           1.0720    -2.1280    -6.4540 c3         1 TKT       0.140100
@<TRIPOS>BOND
     1     1     3 1
     2     1     4 2
     3     1    16 1
     4     2     3 2
     5    41     8 1
     6     3     5 1
     7     4    19 1
     8     5    13 1
     9     6     7 1
    10     6    11 1
    11     7     9 1
    12     8     9 1
    13     8    11 1
    14     9    10 1
    15    10    13 1
    16    11    12 1
    17    12    13 1
    18    14    18 ar
    19    14    20 ar
    20    15    16 ar
    21    15    19 1
    22    15    20 ar
    23    16    17 ar
    24    17    18 ar
    25     4    21 1
    26    41    22 1
    27    41    23 1
    28    41    24 1
    29    19    25 1
    30    13    26 1
    31     6    27 1
    32     6    28 1
    33     7    29 1
    34     7    30 1
    35    11    31 1
    36     9    32 1
    37    10    33 1
    38    10    34 1
    39    12    35 1
    40    12    36 1
    41    14    37 1
    42    18    38 1
    43    20    39 1
    44    17    40 1
@<TRIPOS>SUBSTRUCTURE
     1 TKT         1 TEMP              0 ****  ****    0 ROOT
