@<TRIPOS>MOLECULE
molecule
   35    36     1     0     0
SMALL
bcc


@<TRIPOS>ATOM
      1 OAF          0.0000     0.0000     0.0000 o          1 TKW      -0.716500
      2 PAV          1.4800     0.0000     0.0000 p5         1 TKW       1.198900
      3 OAG          2.0170     0.0000     1.5180 o          1 TKW      -0.716500
      4 OAH          2.0170     1.3130    -0.7600 o          1 TKW      -0.716500
      5 O5'          2.0160    -1.3160    -0.7590 os         1 TKW      -0.578200
      6 C5'          1.6270    -1.6590    -2.0910 c3         1 TKW       0.227400
      7 C4'          2.3150    -2.9610    -2.5040 c3         1 TKW       0.126100
      8 O4'          1.7730    -4.0740    -1.7610 os         1 TKW      -0.357600
      9 C3'          2.0090    -3.2860    -3.9830 c3         1 TKW       0.102100
     10 O3'          3.0900    -2.8730    -4.8210 oh         1 TKW      -0.582800
     11 C2'          1.8630    -4.8230    -4.0060 c3         1 TKW       0.081100
     12 O2'          2.8490    -5.4070    -4.8600 oh         1 TKW      -0.588800
     13 C1'          2.0990    -5.2460    -2.5400 c3         1 TKW       0.290500
     14 NAU          1.2160    -6.3590    -2.1810 n          1 TKW      -0.336000
     15 CAP         -0.1190    -6.1920    -2.2170 c          1 TKW       0.834900
     16 OAB         -0.5790    -5.1130    -2.5500 o          1 TKW      -0.592500
     17 NAK         -0.9460    -7.1850    -1.8970 nc         1 TKW      -0.715100
     18 CAN         -0.4750    -8.3700    -1.5310 cd         1 TKW       0.370500
     19 NAA         -1.3410    -9.3880    -1.2030 nz         1 TKW      -0.685600
     20 CAO          0.9210    -8.5810    -1.4820 cd         1 TKW      -0.141500
     21 OAC          1.4260    -9.7900    -1.1100 oh         1 TKW      -0.536100
     22 CAI          1.7510    -7.5620    -1.8170 cc         1 TKW      -0.012400
     23 H3           1.9200    -0.8650    -2.7680 h1         1 TKW       0.038700
     24 H4           0.5530    -1.7900    -2.1300 h1         1 TKW       0.038700
     25 H5           3.3850    -2.8940    -2.3490 h1         1 TKW       0.075700
     26 H6           1.0830    -2.8150    -4.2890 h1         1 TKW       0.063700
     27 H7           2.7550    -2.3530    -5.5330 ho         1 TKW       0.396000
     28 H8           0.8660    -5.1020    -4.3230 h1         1 TKW       0.066700
     29 H9           2.4260    -5.8090    -5.6010 ho         1 TKW       0.393000
     30 H10          3.1370    -5.5180    -2.3900 h2         1 TKW       0.076700
     31 H11         -1.2140    -9.6380    -0.2420 hn         1 TKW       0.435133
     32 H12         -2.2840    -9.0830    -1.3460 hn         1 TKW       0.435133
     33 H13          2.0010    -9.6770    -0.3710 ho         1 TKW       0.421000
     34 H14          2.8260    -7.6980    -1.7870 h4         1 TKW       0.169000
     35 HAA3        -1.1560   -10.1830    -1.7810 hn         1 TKW       0.435133
@<TRIPOS>BOND
     1    19    18 1
     2    18    17 2
     3    18    20 1
     4    17    15 1
     5     1     2 1
     6    21    20 1
     7    20    22 2
     8    16    15 2
     9    15    14 1
    10     4     2 1
    11     2     5 1
    12     2     3 1
    13    22    14 1
    14    14    13 1
    15     6     5 1
    16     6     7 1
    17     8     7 1
    18     8    13 1
    19     7     9 1
    20    13    11 1
    21    11     9 1
    22    11    12 1
    23     9    10 1
    24     6    23 1
    25     6    24 1
    26     7    25 1
    27     9    26 1
    28    10    27 1
    29    11    28 1
    30    12    29 1
    31    13    30 1
    32    19    31 1
    33    19    32 1
    34    21    33 1
    35    22    34 1
    36    35    19 1
@<TRIPOS>SUBSTRUCTURE
     1 TKW         1 TEMP              0 ****  ****    0 ROOT
