@<TRIPOS>MOLECULE
TKW
   34    35     1     0     0
SMALL
bcc


@<TRIPOS>ATOM
      1 OAF         0.7000    1.9190   -2.9400 o         1 TKW     -0.927833
      2 PAV         1.4590    1.1520   -1.8680 p5        1 TKW      1.356900
      3 OAG         1.1120    1.6640   -0.4910 o         1 TKW     -0.927833
      4 OAH         1.6640   -0.3060   -2.1000 o         1 TKW     -0.927833
      5 O5'         3.0340    1.8540   -1.9700 os        1 TKW     -0.571200
      6 C5'         3.2000    3.0000   -2.6980 c3        1 TKW      0.218400
      7 C4'         3.1420    4.2840   -1.8340 c3        1 TKW      0.063100
      8 O4'         3.1610    5.4380   -2.7050 os        1 TKW     -0.439600
      9 C3'         1.8880    4.3970   -0.9430 c3        1 TKW      0.070100
     10 O3'         2.2170    4.2570    0.4210 oh        1 TKW     -0.653800
     11 C2'         1.3060    5.7930   -1.2250 c3        1 TKW      0.107100
     12 O2'         1.6540    6.7800   -0.2760 oh        1 TKW     -0.613800
     13 C1'         1.9390    6.1760   -2.6040 c3        1 TKW      0.264500
     14 NAU         1.0530    5.9010   -3.7370 n         1 TKW     -0.361000
     15 CAP         0.8590    6.8730   -4.7690 c         1 TKW      0.820900
     16 OAB         1.3170    8.0340   -4.6050 o         1 TKW     -0.695500
     17 NAK         0.1330    6.5530   -5.9280 nc        1 TKW     -0.756100
     18 CAN        -0.3260    5.2980   -6.0910 cd        1 TKW      0.709500
     19 NAA        -0.9360    4.9290   -7.2930 nh        1 TKW     -0.897800
     20 CAO        -0.1610    4.2940   -5.0490 cd        1 TKW     -0.152500
     21 OAC        -0.7080    3.0470   -5.2290 oh        1 TKW     -0.566100
     22 CAI         0.5250    4.6420   -3.9030 cc        1 TKW     -0.025400
     23 H3          2.4420    3.0730   -3.5270 h1        1 TKW      0.003200
     24 H4          4.2290    2.9870   -3.1650 h1        1 TKW      0.003200
     25 H5          4.0700    4.3690   -1.2090 h1        1 TKW      0.047700
     26 H6          1.1450    3.5780   -1.2260 h1        1 TKW      0.158700
     27 H7          2.0050    3.3220    0.6270 ho        1 TKW      0.480000
     28 H8          0.1860    5.7830   -1.2540 h1        1 TKW      0.077700
     29 H9          2.4250    6.4540    0.2060 ho        1 TKW      0.417000
     30 H10         2.2320    7.2650   -2.6460 h2        1 TKW      0.108700
     31 H11        -1.3420    5.6560   -7.8330 hn        1 TKW      0.404300
     32 H12        -1.4700    4.0910   -7.2250 hn        1 TKW      0.404300
     33 H13        -0.3000    2.4440   -4.5520 ho        1 TKW      0.522000
     34 H14         0.6660    3.8550   -3.1040 h4        1 TKW      0.282000
@<TRIPOS>BOND
     1    1    2 1   
     2    2    3 1   
     3    2    4 1   
     4    2    5 1   
     5    5    6 1   
     6    6    7 1   
     7    6   23 1   
     8    6   24 1   
     9    7    8 1   
    10    7    9 1   
    11    7   25 1   
    12    8   13 1   
    13    9   10 1   
    14    9   11 1   
    15    9   26 1   
    16   10   27 1   
    17   11   12 1   
    18   11   13 1   
    19   11   28 1   
    20   12   29 1   
    21   13   14 1   
    22   13   30 1   
    23   14   15 1   
    24   14   22 1   
    25   15   16 2   
    26   15   17 1   
    27   17   18 2   
    28   18   19 1   
    29   18   20 1   
    30   19   31 1   
    31   19   32 1   
    32   20   21 1   
    33   20   22 2   
    34   21   33 1   
    35   22   34 1   
@<TRIPOS>SUBSTRUCTURE
     1 TKW         1 TEMP              0 ****  ****    0 ROOT
