@<TRIPOS>MOLECULE
TL1
   52    55     1     0     0
SMALL
bcc


@<TRIPOS>ATOM
      1 N1           0.0000     0.0000     0.0000 n2         1 TL1      -0.465100
      2 C1           1.3020     0.0000     0.0000 ce         1 TL1       0.220800
      3 N2           1.9910     0.0000     1.1940 nz         1 TL1       0.156900
      4 C2           2.0440     0.0010    -1.2820 ca         1 TL1      -0.193900
      5 C3           3.4380     0.0010    -1.2850 ca         1 TL1      -0.110000
      6 C4           4.1250     0.0020    -2.4810 ca         1 TL1      -0.045500
      7 C5           3.4360     0.0020    -3.6800 ca         1 TL1      -0.075500
      8 C6           2.0480     0.0030    -3.6870 ca         1 TL1       0.127600
      9 O1           1.3750     0.0040    -4.8670 os         1 TL1      -0.275400
     10 C7           1.4610     1.3310    -5.3900 c3         1 TL1       0.118600
     11 C8           0.2690     2.1820    -4.9000 c3         1 TL1       0.181900
     12 O2          -0.7180     2.0750    -5.9470 os         1 TL1      -0.371600
     13 C9           0.0200     2.1490    -7.1840 c3         1 TL1       0.139600
     14 C10         -0.7440     1.3550    -8.2650 c3         1 TL1       0.118600
     15 O3          -0.9170     2.1500    -9.4410 os         1 TL1      -0.275400
     16 C11         -2.0640     1.7270   -10.0350 ca         1 TL1       0.127600
     17 C12         -3.2940     2.1260    -9.5310 ca         1 TL1      -0.075500
     18 C13         -4.4630     1.6990   -10.1320 ca         1 TL1      -0.045500
     19 C14         -4.4140     0.8730   -11.2380 ca         1 TL1      -0.110000
     20 C15         -3.1820     0.4690   -11.7510 ca         1 TL1      -0.193900
     21 C16         -3.1260    -0.4170   -12.9360 ce         1 TL1       0.220800
     22 N3          -1.9750    -0.7940   -13.4150 n2         1 TL1      -0.465100
     23 N4          -4.2930    -0.8430   -13.5340 nz         1 TL1       0.156900
     24 C17         -2.0030     0.9040   -11.1470 ca         1 TL1      -0.070000
     25 C18          0.1650     0.1420    -8.5590 c3         1 TL1       0.181900
     26 O4           0.9490    -0.0300    -7.3590 os         1 TL1      -0.371600
     27 C19          1.3120     1.3170    -6.9270 c3         1 TL1       0.139600
     28 C20          1.3490    -0.0040    -2.4910 ca         1 TL1      -0.070000
     29 HN1         -0.5010    -0.0000     0.8660 hn         1 TL1       0.360400
     30 HN21         2.5660     0.8170     1.2470 hn         1 TL1       0.226300
     31 HN22         1.3400    -0.0000     1.9540 hn         1 TL1       0.226300
     32 H3           3.9820     0.0000    -0.3480 ha         1 TL1       0.087500
     33 H4           5.2090     0.0020    -2.4810 ha         1 TL1       0.129500
     34 H5           3.9810     0.0030    -4.6160 ha         1 TL1       0.137000
     35 H7           2.3970     1.7960    -5.1070 h1         1 TL1       0.041700
     36 H81         -0.1220     1.7820    -3.9720 h1         1 TL1       0.021950
     37 H82          0.5720     3.2150    -4.7740 h1         1 TL1       0.021950
     38 H9           0.2340     3.1680    -7.4840 h1         1 TL1       0.051200
     39 H10         -1.7010     1.0230    -7.8820 h1         1 TL1       0.041700
     40 H12         -3.3380     2.7730    -8.6640 ha         1 TL1       0.137000
     41 H13         -5.4210     2.0120    -9.7340 ha         1 TL1       0.129500
     42 H14         -5.3320     0.5400   -11.7060 ha         1 TL1       0.087500
     43 HN3         -1.1260    -0.4860   -12.9820 hn         1 TL1       0.360400
     44 HN41        -4.8380    -1.3590   -12.8720 hn         1 TL1       0.226300
     45 HN42        -4.8150    -0.0500   -13.8500 hn         1 TL1       0.226300
     46 H17         -1.0430     0.5930   -11.5420 ha         1 TL1       0.133500
     47 H181        -0.4350    -0.7410    -8.7450 h1         1 TL1       0.021950
     48 H182         0.8110     0.3520    -9.4030 h1         1 TL1       0.021950
     49 H19          2.1790     1.7120    -7.4430 h1         1 TL1       0.051200
     50 H20          0.2660    -0.0040    -2.4950 ha         1 TL1       0.133500
     51 H23          2.5640    -0.8180     1.2480 hn         1 TL1       0.226300
     52 H43         -4.0730    -1.4210   -14.3210 hn         1 TL1       0.226300
@<TRIPOS>BOND
     1     1     2 2   
     2     1    29 1   
     3     2     3 1   
     4     2     4 1   
     5     3    30 1   
     6     3    31 1   
     7     3    51 1   
     8     4     5 ar  
     9     4    28 ar  
    10     5     6 ar  
    11     5    32 1   
    12     6     7 ar  
    13     6    33 1   
    14     7     8 ar  
    15     7    34 1   
    16     8     9 1   
    17     8    28 ar  
    18     9    10 1   
    19    10    11 1   
    20    10    27 1   
    21    10    35 1   
    22    11    12 1   
    23    11    36 1   
    24    11    37 1   
    25    12    13 1   
    26    13    14 1   
    27    13    27 1   
    28    13    38 1   
    29    14    15 1   
    30    14    25 1   
    31    14    39 1   
    32    15    16 1   
    33    16    17 ar  
    34    16    24 ar  
    35    17    18 ar  
    36    17    40 1   
    37    18    19 ar  
    38    18    41 1   
    39    19    20 ar  
    40    19    42 1   
    41    20    21 1   
    42    20    24 ar  
    43    21    22 2   
    44    21    23 1   
    45    22    43 1   
    46    23    44 1   
    47    23    45 1   
    48    23    52 1   
    49    24    46 1   
    50    25    26 1   
    51    25    47 1   
    52    25    48 1   
    53    26    27 1   
    54    27    49 1   
    55    28    50 1   
@<TRIPOS>SUBSTRUCTURE
     1 TL1         1 TEMP              0 ****  ****    0 ROOT
