@<TRIPOS>MOLECULE
TL2
   52    55     1     0     0
SMALL
bcc


@<TRIPOS>ATOM
      1 N            0.0000     0.0000     0.0000 n2         1 TL2      -0.478100
      2 C1           1.3030     0.0000     0.0000 ce         1 TL2       0.210800
      3 C2           2.0440     0.0000     1.2810 ca         1 TL2      -0.240900
      4 C3           1.3460     0.0000     2.4910 ca         1 TL2      -0.050000
      5 C4           2.0390     0.0000     3.6820 ca         1 TL2      -0.103500
      6 C5           3.4390    -0.0070     1.2830 ca         1 TL2      -0.050000
      7 C6           4.1250    -0.0010     2.4780 ca         1 TL2      -0.103500
      8 C7           3.4290    -0.0010     3.6800 ca         1 TL2       0.167100
      9 O8           4.1070    -0.0010     4.8560 os         1 TL2      -0.296900
     10 C9           4.5590     1.3380     5.0730 c3         1 TL2       0.120100
     11 C10          3.5340     2.1230     5.9220 c3         1 TL2       0.118400
     12 O11          4.3330     2.9710     6.7730 os         1 TL2      -0.310600
     13 C11          5.8450     1.3440     5.9250 c3         1 TL2       0.068100
     14 C12          5.4480     2.1580     7.1930 c3         1 TL2       0.008100
     15 C13          6.6600     3.0780     7.4570 c3         1 TL2       0.031100
     16 O14          6.2760     4.4510     7.3600 os         1 TL2      -0.249900
     17 O15          6.8490     2.1760     5.2750 os         1 TL2      -0.344600
     18 C16          7.1590     5.3860     9.3620 ca         1 TL2      -0.067000
     19 C17          7.6630     2.7130     6.3400 c3         1 TL2       0.206400
     20 C18          6.0860     4.8950     8.6310 ca         1 TL2       0.115100
     21 C20          4.8200     4.8640     9.1920 ca         1 TL2      -0.050000
     22 N22          2.2710     4.8220    10.4260 n2         1 TL2      -0.461100
     23 N23          3.0960     5.7310    12.3960 nz         1 TL2       0.122400
     24 C24          6.9710     5.8390    10.6540 ca         1 TL2      -0.053000
     25 C25          5.7150     5.8070    11.2250 ca         1 TL2      -0.116000
     26 C26          4.6310     5.3160    10.4970 ca         1 TL2      -0.186900
     27 N27          1.9920    -0.0000    -1.1930 nz         1 TL2       0.189400
     28 HN          -0.5020     0.0000     0.8660 hn         1 TL2       0.379400
     29 H3           0.2660    -0.0740     2.4930 ha         1 TL2       0.103000
     30 H4           1.5000    -0.0230     4.6210 ha         1 TL2       0.138500
     31 H5           3.9820    -0.0730     0.3480 ha         1 TL2       0.103000
     32 H6           5.2080    -0.0270     2.4810 ha         1 TL2       0.138500
     33 H9           4.7300     1.8430     4.1300 h1         1 TL2       0.050700
     34 H101         3.5300     2.5960     4.9470 h1         1 TL2       0.050700
     35 H102         2.6460     1.6050     6.2670 h1         1 TL2       0.050700
     36 H11          6.2040     0.3490     6.1590 h1         1 TL2       0.059700
     37 H12          5.5780     1.1470     7.5600 h1         1 TL2       0.093700
     38 H13          6.5230     2.5030     8.3650 h1         1 TL2       0.087700
     39 H171         8.0400     2.3290     7.2790 h1         1 TL2       0.059700
     40 H172         8.1970     3.6020     6.0250 h1         1 TL2       0.059700
     41 H20          3.9660     4.5820     8.5880 ha         1 TL2       0.153000
     42 H22          1.3590     4.7970    10.8370 hn         1 TL2       0.337400
     43 H231         2.1310     5.6360    12.6470 hn         1 TL2       0.228800
     44 H232         3.3610     6.6940    12.4540 hn         1 TL2       0.228800
     45 H24          7.8120     6.2200    11.2200 ha         1 TL2       0.129000
     46 H25          5.5710     6.1610    12.2380 ha         1 TL2       0.083000
     47 H271         2.5810     0.8080    -1.2390 hn         1 TL2       0.223800
     48 H272         2.5540    -0.8260    -1.2540 hn         1 TL2       0.223800
     49 C21          3.2820     5.2800    11.1070 ce         1 TL2       0.237800
     50 H233         3.6580     5.1910    13.0230 hn         1 TL2       0.228800
     51 H273         1.3420     0.0170    -1.9540 hn         1 TL2       0.223800
     52 H16          8.1470     5.4130     8.9190 ha         1 TL2       0.134000
@<TRIPOS>BOND
     1     1     2 2   
     2     1    28 1   
     3     2     3 1   
     4     2    27 1   
     5     3     4 ar  
     6     3     6 ar  
     7     4     5 ar  
     8     4    29 1   
     9     5     8 ar  
    10     5    30 1   
    11     6     7 ar  
    12     6    31 1   
    13     7     8 ar  
    14     7    32 1   
    15     8     9 1   
    16     9    10 1   
    17    10    11 1   
    18    10    13 1   
    19    10    33 1   
    20    11    12 1   
    21    11    34 1   
    22    11    35 1   
    23    12    14 1   
    24    13    14 1   
    25    13    17 1   
    26    13    36 1   
    27    14    15 1   
    28    14    37 1   
    29    15    16 1   
    30    15    19 1   
    31    15    38 1   
    32    16    20 1   
    33    17    19 1   
    34    18    20 ar  
    35    18    24 ar  
    36    18    52 1   
    37    19    39 1   
    38    19    40 1   
    39    20    21 ar  
    40    21    26 ar  
    41    21    41 1   
    42    22    42 1   
    43    22    49 2   
    44    23    43 1   
    45    23    44 1   
    46    23    49 1   
    47    23    50 1   
    48    24    25 ar  
    49    24    45 1   
    50    25    26 ar  
    51    25    46 1   
    52    26    49 1   
    53    27    47 1   
    54    27    48 1   
    55    27    51 1   
@<TRIPOS>SUBSTRUCTURE
     1 TL2         1 TEMP              0 ****  ****    0 ROOT
