@<TRIPOS>MOLECULE
molecule
   52    55     1     0     0
SMALL
bcc


@<TRIPOS>ATOM
      1 N1           0.0000     0.0000     0.0000 n2         1 TL3      -0.696100
      2 C1           1.3030     0.0000     0.0000 ce         1 TL3       0.530800
      3 N2           1.9920     0.0000     1.1940 nz         1 TL3      -0.771100
      4 C2           2.0440     0.0000    -1.2810 ca         1 TL3      -0.213900
      5 C3           1.3470     0.0010    -2.4910 ca         1 TL3      -0.084750
      6 C4           2.0400     0.0010    -3.6810 ca         1 TL3      -0.138250
      7 C5           3.4290     0.0020    -3.6790 ca         1 TL3       0.150600
      8 O1           4.1080     0.0020    -4.8550 os         1 TL3      -0.289900
      9 C6           4.6030     1.3300    -5.0450 c3         1 TL3       0.095600
     10 C7           3.5800     2.1800    -5.8310 c3         1 TL3       0.103900
     11 O2           3.9910     2.0690    -7.2100 os         1 TL3      -0.377600
     12 C8           5.4320     2.1450    -7.1920 c3         1 TL3       0.103100
     13 C9           5.9830     1.3490    -8.3950 c3         1 TL3       0.095600
     14 O3           6.9130     2.1440    -9.1350 os         1 TL3      -0.289900
     15 C10          6.8550     1.7180   -10.4230 ca         1 TL3       0.150600
     16 C11          5.7990     2.1130   -11.2360 ca         1 TL3      -0.138250
     17 C12          5.7360     1.6830   -12.5440 ca         1 TL3      -0.084750
     18 C13          6.7340     0.8490   -13.0510 ca         1 TL3      -0.213900
     19 C14          6.6690     0.3850   -14.4540 ce         1 TL3       0.530800
     20 N3           5.6790     0.7530   -15.2180 n2         1 TL3      -0.696100
     21 N4           7.6550    -0.4390   -14.9540 nz         1 TL3      -0.771100
     22 C15          7.7930     0.4540   -12.2310 ca         1 TL3      -0.084750
     23 C16          7.8520     0.8930   -10.9260 ca         1 TL3      -0.138250
     24 C17          6.6940     0.1380    -7.7540 c3         1 TL3       0.103900
     25 O4           6.0510    -0.0330    -6.4740 os         1 TL3      -0.377600
     26 C18          5.8580     1.3150    -5.9450 c3         1 TL3       0.103100
     27 C19          4.1250     0.0020    -2.4770 ca         1 TL3      -0.138250
     28 C20          3.4390     0.0070    -1.2820 ca         1 TL3      -0.084750
     29 HN1         -0.5020     0.0000    -0.8660 hn         1 TL3       0.460400
     30 HN21         2.5650    -0.8190     1.2490 hn         1 TL3       0.470800
     31 HN22         1.3410     0.0030     1.9550 hn         1 TL3       0.470800
     32 H3           0.2660    -0.0630    -2.4930 ha         1 TL3       0.146500
     33 H4           1.5010    -0.0270    -4.6200 ha         1 TL3       0.171250
     34 H6           4.8280     1.7970    -4.0940 h1         1 TL3       0.075200
     35 H71          3.6230     3.2130    -5.5080 h1         1 TL3       0.068450
     36 H72          2.5820     1.7790    -5.7030 h1         1 TL3       0.068450
     37 H8           5.7980     3.1630    -7.1590 h1         1 TL3       0.089200
     38 H9           5.1710     1.0160    -9.0300 h1         1 TL3       0.075200
     39 H11          5.0250     2.7600   -10.8410 ha         1 TL3       0.171250
     40 H12          4.9130     1.9910   -13.1770 ha         1 TL3       0.146500
     41 HN3          5.6350     0.4400   -16.1670 hn         1 TL3       0.460400
     42 HN41         8.5400     0.0250   -14.8930 hn         1 TL3       0.470800
     43 HN42         7.4570    -0.6540   -15.9110 hn         1 TL3       0.470800
     44 H15          8.5700    -0.1910   -12.6220 ha         1 TL3       0.146500
     45 H16          8.6730     0.5870   -10.2900 ha         1 TL3       0.171250
     46 H171         7.7480     0.3480    -7.6190 h1         1 TL3       0.068450
     47 H172         6.5550    -0.7460    -8.3650 h1         1 TL3       0.068450
     48 H18          6.7390     1.7110    -5.4550 h1         1 TL3       0.089200
     49 H19          5.2080    -0.0360    -2.4780 ha         1 TL3       0.171250
     50 H20          4.2190    -0.0220    -0.5300 ha         1 TL3       0.146500
     51 H23          2.5700     0.8150     1.2460 hn         1 TL3       0.470800
     52 H43          7.6910    -1.2810   -14.4150 hn         1 TL3       0.470800
@<TRIPOS>BOND
     1     1     2 2
     2     1    29 1
     3     2     3 1
     4     2     4 1
     5     3    30 1
     6     3    31 1
     7     4     5 ar
     8     4    28 ar
     9     5     6 ar
    10     5    32 1
    11     6     7 ar
    12     6    33 1
    13     7     8 1
    14     7    27 ar
    15     8     9 1
    16     9    10 1
    17     9    26 1
    18     9    34 1
    19    10    11 1
    20    10    35 1
    21    10    36 1
    22    11    12 1
    23    12    13 1
    24    12    26 1
    25    12    37 1
    26    13    14 1
    27    13    24 1
    28    13    38 1
    29    14    15 1
    30    15    16 ar
    31    15    23 ar
    32    16    17 ar
    33    16    39 1
    34    17    18 ar
    35    17    40 1
    36    18    19 1
    37    18    22 ar
    38    19    20 2
    39    19    21 1
    40    20    41 1
    41    21    42 1
    42    21    43 1
    43    22    23 ar
    44    22    44 1
    45    23    45 1
    46    24    25 1
    47    24    46 1
    48    24    47 1
    49    25    26 1
    50    26    48 1
    51    27    28 ar
    52    27    49 1
    53    28    50 1
    54    51     3 1
    55    52    21 1
@<TRIPOS>SUBSTRUCTURE
     1 TL3         1 TEMP              0 ****  ****    0 ROOT
