@<TRIPOS>MOLECULE
TL4
   52    55     1     0     0
SMALL
bcc


@<TRIPOS>ATOM
      1 C4           0.0000     0.0000     0.0000 ca         1 TL4      -0.243900
      2 C5           1.3960     0.0000     0.0000 ca         1 TL4      -0.051000
      3 C6           2.0840     0.0000     1.1940 ca         1 TL4      -0.104500
      4 C7           1.3890    -0.0000     2.3970 ca         1 TL4       0.163100
      5 O8           2.0700    -0.0000     3.5720 os         1 TL4      -0.261900
      6 C9           1.9890     1.3270     4.0960 c3         1 TL4       0.123100
      7 C10          3.1800     2.1760     3.6020 c3         1 TL4       0.182400
      8 O11          4.1710     2.0660     4.6450 os         1 TL4      -0.378600
      9 C12          3.4380     2.1410     5.8850 c3         1 TL4       0.137100
     10 C13          4.2050     1.3460     6.9620 c3         1 TL4       0.119100
     11 O14          4.3840     2.1390     8.1370 os         1 TL4      -0.294900
     12 C15          5.5310     1.7130     8.7280 ca         1 TL4       0.146100
     13 C16          6.7610     2.1070     8.2200 ca         1 TL4      -0.087000
     14 C17          7.9310     1.6750     8.8170 ca         1 TL4      -0.031000
     15 C18          7.8830     0.8510     9.9220 ca         1 TL4      -0.112000
     16 C19          6.6510     0.4500    10.4400 ca         1 TL4      -0.189900
     17 C20          6.5970    -0.4350    11.6260 ce         1 TL4       0.202800
     18 N21          5.4460    -0.8090    12.1070 n2         1 TL4      -0.471100
     19 N22          7.7630    -0.8650    12.2190 nz         1 TL4       0.190400
     20 C23          5.4720     0.8900     9.8410 ca         1 TL4      -0.127000
     21 C24          3.2940     0.1330     7.2590 c3         1 TL4       0.184400
     22 O25          2.5050    -0.0360     6.0630 os         1 TL4      -0.362600
     23 C26          2.1430     1.3120     5.6320 c3         1 TL4       0.139100
     24 C27         -0.0000     0.0010     2.4010 ca         1 TL4      -0.104500
     25 C28         -0.6940     0.0070     1.2100 ca         1 TL4      -0.051000
     26 N1          -0.0910    -0.0010    -2.4090 n2         1 TL4      -0.479100
     27 C2          -0.7410     0.0000    -1.2800 ce         1 TL4       0.210800
     28 N3          -2.1190     0.0010    -1.2780 nz         1 TL4       0.189400
     29 H5           1.9390    -0.0030    -0.9380 ha         1 TL4       0.101500
     30 H6           3.1670    -0.0000     1.1950 ha         1 TL4       0.139000
     31 H9           1.0520     1.7940     3.8170 h1         1 TL4       0.028700
     32 H101         2.8790     3.2100     3.4780 h1         1 TL4       0.026200
     33 H102         3.5670     1.7760     2.6730 h1         1 TL4       0.026200
     34 H12          3.2270     3.1600     6.1870 h1         1 TL4       0.053700
     35 H13          5.1600     1.0120     6.5740 h1         1 TL4       0.051700
     36 H16          6.8050     2.7660     7.3610 ha         1 TL4       0.140000
     37 H17          8.8880     1.9870     8.4170 ha         1 TL4       0.130000
     38 H18          8.8020     0.4920    10.3700 ha         1 TL4       0.091000
     39 H21          4.5970    -0.4980    11.6780 hn         1 TL4       0.380400
     40 H221         7.5430    -1.4460    13.0040 hn         1 TL4       0.223133
     41 H222         8.2920    -0.0740    12.5280 hn         1 TL4       0.223133
     42 H23          4.6340     1.2010    10.4520 ha         1 TL4       0.141000
     43 H241         3.8930    -0.7510     7.4420 h1         1 TL4       0.021700
     44 H242         2.6520     0.3440     8.1060 h1         1 TL4       0.021700
     45 H26          1.2790     1.7090     6.1520 h1         1 TL4       0.046700
     46 H27         -0.5390     0.0040     3.3410 ha         1 TL4       0.139000
     47 H28         -1.7770     0.0070     1.2140 ha         1 TL4       0.101500
     48 HN1          0.9100    -0.0020    -2.4130 hn         1 TL4       0.380400
     49 HN31        -2.4530    -0.0010    -2.2220 hn         1 TL4       0.222800
     50 HN32        -2.4520     0.8200    -0.8090 hn         1 TL4       0.222800
     51 H223         8.3040    -1.3830    11.5550 hn         1 TL4       0.223133
     52 H33         -2.4530    -0.8180    -0.8090 hn         1 TL4       0.222800
@<TRIPOS>BOND
     1     1     2 ar  
     2     1    25 ar  
     3     1    27 1   
     4     2     3 ar  
     5     2    29 1   
     6     3     4 ar  
     7     3    30 1   
     8     4     5 1   
     9     4    24 ar  
    10     5     6 1   
    11     6     7 1   
    12     6    23 1   
    13     6    31 1   
    14     7     8 1   
    15     7    32 1   
    16     7    33 1   
    17     8     9 1   
    18     9    10 1   
    19     9    23 1   
    20     9    34 1   
    21    10    11 1   
    22    10    21 1   
    23    10    35 1   
    24    11    12 1   
    25    12    13 ar  
    26    12    20 ar  
    27    13    14 ar  
    28    13    36 1   
    29    14    15 ar  
    30    14    37 1   
    31    15    16 ar  
    32    15    38 1   
    33    16    17 1   
    34    16    20 ar  
    35    17    18 2   
    36    17    19 1   
    37    18    39 1   
    38    19    40 1   
    39    19    41 1   
    40    19    51 1   
    41    20    42 1   
    42    21    22 1   
    43    21    43 1   
    44    21    44 1   
    45    22    23 1   
    46    23    45 1   
    47    24    25 ar  
    48    24    46 1   
    49    25    47 1   
    50    26    27 2   
    51    26    48 1   
    52    27    28 1   
    53    28    49 1   
    54    28    50 1   
    55    28    52 1   
@<TRIPOS>SUBSTRUCTURE
     1 TL4         1 TEMP              0 ****  ****    0 ROOT
