@<TRIPOS>MOLECULE
molecule
   52    55     1     0     0
SMALL
bcc


@<TRIPOS>ATOM
      1 C4           0.0000     0.0000     0.0000 ca         1 TL4      -0.205900
      2 C5           1.3960     0.0000     0.0000 ca         1 TL4      -0.068500
      3 C6           2.0840     0.0000     1.1940 ca         1 TL4      -0.141000
      4 C7           1.3890    -0.0000     2.3970 ca         1 TL4       0.151100
      5 O8           2.0700    -0.0000     3.5720 os         1 TL4      -0.271900
      6 C9           1.9890     1.3270     4.0960 c3         1 TL4       0.097100
      7 C10          3.1800     2.1760     3.6020 c3         1 TL4       0.104400
      8 O11          4.1710     2.0660     4.6450 os         1 TL4      -0.386600
      9 C12          3.4380     2.1410     5.8850 c3         1 TL4       0.101100
     10 C13          4.2050     1.3460     6.9620 c3         1 TL4       0.094100
     11 O14          4.3840     2.1390     8.1370 os         1 TL4      -0.303900
     12 C15          5.5310     1.7130     8.7280 ca         1 TL4       0.109100
     13 C16          6.7610     2.1070     8.2200 ca         1 TL4      -0.101000
     14 C17          7.9310     1.6750     8.8170 ca         1 TL4      -0.087000
     15 C18          7.8830     0.8510     9.9220 ca         1 TL4      -0.137000
     16 C19          6.6510     0.4500    10.4400 ca         1 TL4      -0.177900
     17 C20          6.5970    -0.4350    11.6260 ce         1 TL4       0.539800
     18 N21          5.4460    -0.8090    12.1070 n2         1 TL4      -0.673100
     19 N22          7.7630    -0.8650    12.2190 nz         1 TL4      -0.801600
     20 C23          5.4720     0.8900     9.8410 ca         1 TL4      -0.073000
     21 C24          3.2940     0.1330     7.2590 c3         1 TL4       0.104400
     22 O25          2.5050    -0.0360     6.0630 os         1 TL4      -0.369600
     23 C26          2.1430     1.3120     5.6320 c3         1 TL4       0.104100
     24 C27         -0.0000     0.0010     2.4010 ca         1 TL4      -0.141000
     25 C28         -0.6940     0.0070     1.2100 ca         1 TL4      -0.068500
     26 N1          -0.0910    -0.0010    -2.4090 n2         1 TL4      -0.678100
     27 C2          -0.7410     0.0000    -1.2800 ce         1 TL4       0.541800
     28 N3          -2.1190     0.0010    -1.2780 nz         1 TL4      -0.801600
     29 H5           1.9390    -0.0030    -0.9380 ha         1 TL4       0.143500
     30 H6           3.1670    -0.0000     1.1950 ha         1 TL4       0.171000
     31 H9           1.0520     1.7940     3.8170 h1         1 TL4       0.062700
     32 H101         3.5670     1.7760     2.6730 h1         1 TL4       0.069200
     33 H102         2.8790     3.2100     3.4780 h1         1 TL4       0.069200
     34 H12          3.2270     3.1600     6.1870 h1         1 TL4       0.090700
     35 H13          5.1600     1.0120     6.5740 h1         1 TL4       0.086700
     36 H16          6.8050     2.7710     7.3640 ha         1 TL4       0.174000
     37 H17          8.8880     1.9840     8.4140 ha         1 TL4       0.167000
     38 H18          8.8010     0.5340    10.4010 ha         1 TL4       0.113000
     39 H21          5.4080    -1.4070    12.9080 hn         1 TL4       0.437400
     40 H221         8.3070    -1.3790    11.5540 hn         1 TL4       0.467467
     41 H222         8.2870    -0.0740    12.5380 hn         1 TL4       0.467467
     42 H23          4.6250     1.0780    10.4890 ha         1 TL4       0.181000
     43 H241         2.6520     0.3440     8.1060 h1         1 TL4       0.068200
     44 H242         3.8930    -0.7510     7.4420 h1         1 TL4       0.068200
     45 H26          1.2790     1.7090     6.1520 h1         1 TL4       0.085700
     46 H27         -0.5390     0.0040     3.3410 ha         1 TL4       0.171000
     47 H28         -1.7770     0.0070     1.2140 ha         1 TL4       0.143500
     48 HN1         -0.5920    -0.0010    -3.2760 hn         1 TL4       0.437400
     49 HN31        -2.4520     0.8200    -0.8090 hn         1 TL4       0.466467
     50 HN32        -2.4540    -0.0020    -2.2220 hn         1 TL4       0.466467
     51 H223         7.5440    -1.4570    12.9960 hn         1 TL4       0.467467
     52 H33         -2.4530    -0.8170    -0.8080 hn         1 TL4       0.466467
@<TRIPOS>BOND
     1     1     2 ar
     2     1    25 ar
     3     1    27 1
     4     2     3 ar
     5     2    29 1
     6     3     4 ar
     7     3    30 1
     8     4     5 1
     9     4    24 ar
    10     5     6 1
    11     6     7 1
    12     6    23 1
    13     6    31 1
    14     7     8 1
    15     7    32 1
    16     7    33 1
    17     8     9 1
    18     9    10 1
    19     9    23 1
    20     9    34 1
    21    10    11 1
    22    10    21 1
    23    10    35 1
    24    11    12 1
    25    12    13 ar
    26    12    20 ar
    27    13    14 ar
    28    13    36 1
    29    14    15 ar
    30    14    37 1
    31    15    16 ar
    32    15    38 1
    33    16    17 1
    34    16    20 ar
    35    17    18 2
    36    17    19 1
    37    18    39 1
    38    19    40 1
    39    19    41 1
    40    20    42 1
    41    21    22 1
    42    21    43 1
    43    21    44 1
    44    22    23 1
    45    23    45 1
    46    24    25 ar
    47    24    46 1
    48    25    47 1
    49    26    27 2
    50    26    48 1
    51    27    28 1
    52    28    49 1
    53    28    50 1
    54    51    19 1
    55    52    28 1
@<TRIPOS>SUBSTRUCTURE
     1 TL4         1 TEMP              0 ****  ****    0 ROOT
