@<TRIPOS>MOLECULE
TL5
   31    31     1     0     0
SMALL
bcc


@<TRIPOS>ATOM
      1 O1          0.2780   -0.3860   -0.2560 o         1 TL5     -0.497100
      2 C1          1.4870   -0.2060   -0.1200 c         1 TL5      0.619900
      3 C2          2.2610   -0.4320    1.1100 ce        1 TL5     -0.322400
      4 C9          1.5890   -0.9030    2.3320 c3        1 TL5     -0.038900
      5 S1          2.5760    0.3760   -1.3590 ss        1 TL5     -0.282700
      6 C4          4.1000    0.3030   -0.3410 c3        1 TL5      0.139500
      7 C3          3.5890   -0.1630    0.9980 c2        1 TL5      0.138900
      8 O2          4.5160   -0.2490    1.9900 oh        1 TL5     -0.469100
      9 C10         4.6720    1.7010   -0.2630 c3        1 TL5     -0.083100
     10 C5          4.9940   -0.6890   -0.9910 c2        1 TL5     -0.188200
     11 C6          6.3110   -0.8740   -0.7920 ce        1 TL5     -0.031200
     12 C11         7.1450   -0.0930    0.1520 c3        1 TL5     -0.072900
     13 C7          7.0080   -1.8940   -1.5800 ce        1 TL5     -0.153000
     14 C8          7.6690   -2.9480   -1.0900 c2        1 TL5     -0.145200
     15 C12         7.8080   -3.3000    0.3350 c3        1 TL5     -0.071900
     16 H91         0.4960   -1.0570    2.1390 hc        1 TL5      0.051367
     17 H92         2.0270   -1.8750    2.6750 hc        1 TL5      0.051367
     18 H93         1.6990   -0.1550    3.1580 hc        1 TL5      0.051367
     19 HO2         4.0730   -0.5810    2.7890 ho        1 TL5      0.434000
     20 H101        5.3870    1.7760    0.5940 hc        1 TL5      0.059033
     21 H102        3.8560    2.4490   -0.1100 hc        1 TL5      0.059033
     22 H103        5.2130    1.9480   -1.2080 hc        1 TL5      0.059033
     23 H5          4.4710   -1.3360   -1.7220 ha        1 TL5      0.149000
     24 H111        6.6310    0.0100    1.1420 hc        1 TL5      0.052367
     25 H112        8.1330   -0.5900    0.3180 hc        1 TL5      0.052367
     26 H113        7.3330    0.9300   -0.2610 hc        1 TL5      0.052367
     27 H7          6.9480   -1.7400   -2.6720 ha        1 TL5      0.131000
     28 H8          8.1640   -3.6470   -1.7880 ha        1 TL5      0.121000
     29 H121        8.8800   -3.2130    0.6460 hc        1 TL5      0.045700
     30 H122        7.4810   -4.3570    0.5020 hc        1 TL5      0.045700
     31 H123        7.1960   -2.6330    0.9920 hc        1 TL5      0.045700
@<TRIPOS>BOND
     1    1    2 2   
     2    2    3 1   
     3    2    5 1   
     4    3    4 1   
     5    3    7 2   
     6    4   16 1   
     7    4   17 1   
     8    4   18 1   
     9    5    6 1   
    10    6    7 1   
    11    6    9 1   
    12    6   10 1   
    13    7    8 1   
    14    8   19 1   
    15    9   20 1   
    16    9   21 1   
    17    9   22 1   
    18   10   11 2   
    19   10   23 1   
    20   11   12 1   
    21   11   13 1   
    22   12   24 1   
    23   12   25 1   
    24   12   26 1   
    25   13   14 2   
    26   13   27 1   
    27   14   15 1   
    28   14   28 1   
    29   15   29 1   
    30   15   30 1   
    31   15   31 1   
@<TRIPOS>SUBSTRUCTURE
     1 TL5         1 TEMP              0 ****  ****    0 ROOT
