@<TRIPOS>MOLECULE
molecule
   31    31     1     0     0
SMALL
bcc


@<TRIPOS>ATOM
      1 O1           0.0000     0.0000     0.0000 o          1 TL5      -0.473100
      2 C1           1.2180     0.0000     0.0000 c          1 TL5       0.624900
      3 C2           2.0960     0.0000     1.1140 ce         1 TL5      -0.266400
      4 C9           1.5220     0.0010     2.5080 c3         1 TL5      -0.048900
      5 S1           2.3240     0.0000    -1.4030 ss         1 TL5      -0.229700
      6 C4           3.9080     0.0010    -0.4770 c3         1 TL5       0.060500
      7 C3           3.4050     0.0010     0.9550 c2         1 TL5       0.052900
      8 O2           4.2490     0.0000     2.0070 oh         1 TL5      -0.494100
      9 C10          4.7220     1.2610    -0.7760 c3         1 TL5      -0.082100
     10 C5           4.7100    -1.2420    -0.7710 c2         1 TL5      -0.400200
     11 C6           5.9420    -1.3670    -0.2880 ce         1 TL5       0.076800
     12 C11          6.4720    -0.3570     0.6960 c3         1 TL5      -0.135900
     13 C7           6.7880    -2.4920    -0.7160 ce         1 TL5      -0.147000
     14 C8           8.0200    -2.6160    -0.2340 c2         1 TL5      -0.137200
     15 C12          8.8870    -3.7690    -0.6720 c3         1 TL5      -0.065900
     16 H91          0.4560    -0.1890     2.4590 hc         1 TL5       0.056700
     17 H92          2.0000    -0.7730     3.0960 hc         1 TL5       0.056700
     18 H93          1.6960     0.9650     2.9700 hc         1 TL5       0.056700
     19 HO2          4.0400     0.7210     2.5780 ho         1 TL5       0.435000
     20 H101         5.6280     0.9890    -1.3040 hc         1 TL5       0.053700
     21 H102         4.1350     1.9330    -1.3890 hc         1 TL5       0.053700
     22 H103         4.9800     1.7530     0.1540 hc         1 TL5       0.053700
     23 H5           4.1450    -1.1510     0.1490 ha         1 TL5       0.292000
     24 H111         6.6740    -0.8460     1.6410 hc         1 TL5       0.060700
     25 H112         5.7350     0.4240     0.8440 hc         1 TL5       0.060700
     26 H113         7.3860     0.0770     0.3110 hc         1 TL5       0.060700
     27 H7           6.4060    -3.2180    -1.4230 ha         1 TL5       0.156000
     28 H8           8.4010    -1.8900     0.4730 ha         1 TL5       0.125000
     29 H121         9.8490    -3.7040    -0.1800 hc         1 TL5       0.048033
     30 H122         9.0270    -3.7280    -1.7460 hc         1 TL5       0.048033
     31 H123         8.4070    -4.7030    -0.4060 hc         1 TL5       0.048033
@<TRIPOS>BOND
     1     1     2 2
     2     2     3 1
     3     2     5 1
     4     3     4 1
     5     3     7 2
     6     4    16 1
     7     4    17 1
     8     4    18 1
     9     5     6 1
    10     6     7 1
    11     6     9 1
    12     6    10 1
    13     7     8 1
    14     8    19 1
    15     9    20 1
    16     9    21 1
    17     9    22 1
    18    10    11 2
    19    10    23 1
    20    11    12 1
    21    11    13 1
    22    12    24 1
    23    12    25 1
    24    12    26 1
    25    13    14 2
    26    13    27 1
    27    14    15 1
    28    14    28 1
    29    15    29 1
    30    15    30 1
    31    15    31 1
@<TRIPOS>SUBSTRUCTURE
     1 TL5         1 TEMP              0 ****  ****    0 ROOT
