@<TRIPOS>MOLECULE
TL6
   25    25     1     0     0
SMALL
bcc


@<TRIPOS>ATOM
      1 O1         -0.0150   -0.1370   -0.1220 o         1 TL6     -0.495100
      2 C1          1.2130   -0.0880   -0.0940 c         1 TL6      0.621900
      3 S1          2.1910    0.0340    1.3550 ss        1 TL6     -0.279700
      4 C4          3.8050    0.0430    0.5060 c3        1 TL6      0.122500
      5 C10         4.5930   -1.1740    0.9530 c3        1 TL6     -0.076100
      6 C3          3.4300   -0.0590   -0.9510 c2        1 TL6      0.134900
      7 O2          4.4760   -0.0760   -1.8210 oh        1 TL6     -0.468100
      8 C2          2.1090   -0.1270   -1.2600 ce        1 TL6     -0.318400
      9 C9          1.5550   -0.2300   -2.6190 c3        1 TL6     -0.038900
     10 C5          4.5800    1.2840    0.7690 c2        1 TL6     -0.170200
     11 C6          4.3570    2.1160    1.7950 ce        1 TL6     -0.103000
     12 C7          5.1590    3.3010    2.0310 ce        1 TL6     -0.144000
     13 C8          4.9360    4.1430    3.0430 c2        1 TL6     -0.193000
     14 H101        4.0120   -2.1090    0.7660 hc        1 TL6      0.058033
     15 H102        5.5540   -1.2260    0.3840 hc        1 TL6      0.058033
     16 H103        4.8200   -1.1010    2.0440 hc        1 TL6      0.058033
     17 HO2         4.1170   -0.1310   -2.7220 ho        1 TL6      0.435000
     18 H91         1.8520    0.6560   -3.2350 hc        1 TL6      0.052033
     19 H92         0.4370   -0.2750   -2.5810 hc        1 TL6      0.052033
     20 H93         1.9280   -1.1550   -3.1290 hc        1 TL6      0.052033
     21 H5          5.3930    1.4580    0.0420 ha        1 TL6      0.144000
     22 H6          3.5300    1.9310    2.5070 ha        1 TL6      0.144000
     23 H7          5.9830    3.4810    1.3170 ha        1 TL6      0.124000
     24 H81         4.1260    3.9980    3.7700 ha        1 TL6      0.116500
     25 H82         5.5540    5.0360    3.2040 ha        1 TL6      0.116500
@<TRIPOS>BOND
     1    1    2 2   
     2    2    3 1   
     3    2    8 1   
     4    3    4 1   
     5    4    5 1   
     6    4    6 1   
     7    4   10 1   
     8    5   14 1   
     9    5   15 1   
    10    5   16 1   
    11    6    7 1   
    12    6    8 2   
    13    7   17 1   
    14    8    9 1   
    15    9   18 1   
    16    9   19 1   
    17    9   20 1   
    18   10   11 2   
    19   10   21 1   
    20   11   12 1   
    21   11   22 1   
    22   12   13 2   
    23   12   23 1   
    24   13   24 1   
    25   13   25 1   
@<TRIPOS>SUBSTRUCTURE
     1 TL6         1 TEMP              0 ****  ****    0 ROOT
