@<TRIPOS>MOLECULE
molecule
   25    25     1     0     0
SMALL
bcc


@<TRIPOS>ATOM
      1 O1           0.0000     0.0000     0.0000 o          1 TL6      -0.470100
      2 C1           1.2180     0.0000     0.0000 c          1 TL6       0.649900
      3 S1           2.3230     0.0000     1.4030 ss         1 TL6      -0.329700
      4 C4           3.9080     0.0010     0.4750 c3         1 TL6       0.099500
      5 C10          4.7250    -1.2580     0.7760 c3         1 TL6      -0.067100
      6 C3           3.4030    -0.0040    -0.9560 c2         1 TL6       0.130900
      7 O2           4.2470    -0.0030    -2.0070 oh         1 TL6      -0.497100
      8 C2           2.0950    -0.0060    -1.1140 ce         1 TL6      -0.268400
      9 C9           1.5200    -0.0100    -2.5070 c3         1 TL6      -0.037900
     10 C5           4.7080     1.2460     0.7660 c2         1 TL6      -0.167200
     11 C6           4.3160     2.0770     1.7250 ce         1 TL6      -0.113000
     12 C7           5.0970     3.2920     2.0090 ce         1 TL6      -0.148000
     13 C8           4.7050     4.1240     2.9680 c2         1 TL6      -0.196000
     14 H101         4.1700    -2.1330     0.4580 hc         1 TL6       0.052367
     15 H102         4.9140    -1.3200     1.8410 hc         1 TL6       0.052367
     16 H103         5.6670    -1.2140     0.2440 hc         1 TL6       0.052367
     17 HO2          4.4000    -0.8900    -2.2880 ho         1 TL6       0.433000
     18 H91          0.4570     0.1910    -2.4600 hc         1 TL6       0.054367
     19 H92          1.6840    -0.9790    -2.9630 hc         1 TL6       0.054367
     20 H93          2.0060     0.7560    -3.1010 hc         1 TL6       0.054367
     21 H5           5.6010     1.4620     0.1930 ha         1 TL6       0.146000
     22 H6           3.4230     1.8610     2.2980 ha         1 TL6       0.155000
     23 H7           5.9910     3.5070     1.4370 ha         1 TL6       0.127000
     24 H81          5.2800     5.0180     3.1770 ha         1 TL6       0.116500
     25 H82          3.8110     3.9090     3.5410 ha         1 TL6       0.116500
@<TRIPOS>BOND
     1     1     2 2
     2     2     3 1
     3     2     8 1
     4     3     4 1
     5     4     5 1
     6     4     6 1
     7     4    10 1
     8     5    14 1
     9     5    15 1
    10     5    16 1
    11     6     7 1
    12     6     8 2
    13     7    17 1
    14     8     9 1
    15     9    18 1
    16     9    19 1
    17     9    20 1
    18    10    11 2
    19    10    21 1
    20    11    12 1
    21    11    22 1
    22    12    13 2
    23    12    23 1
    24    13    24 1
    25    13    25 1
@<TRIPOS>SUBSTRUCTURE
     1 TL6         1 TEMP              0 ****  ****    0 ROOT
