@<TRIPOS>MOLECULE
TLA
   14    13     1     0     0
SMALL
bcc


@<TRIPOS>ATOM
      1 O1          0.0770   -0.2980   -0.0680 o         1 TLA     -0.870800
      2 O11         2.0640   -0.8490   -0.9040 o         1 TLA     -0.870800
      3 C1          1.3400   -0.4080    0.0350 c         1 TLA      0.891600
      4 C2          1.9800   -0.0190    1.3870 c3        1 TLA      0.021100
      5 O2          0.9650    0.1300    2.3740 oh        1 TLA     -0.639800
      6 C3          2.8180    1.2660    1.3020 c3        1 TLA      0.021100
      7 O3          1.9700    2.4040    1.4130 oh        1 TLA     -0.639800
      8 C4          3.9240    1.3320    2.3780 c         1 TLA      0.891600
      9 O4          3.7870    2.1900    3.3070 o         1 TLA     -0.870800
     10 O41         4.9340    0.5740    2.2960 o         1 TLA     -0.870800
     11 H2          2.6350   -0.8560    1.7500 h1        1 TLA      0.062700
     12 HA          0.2130    0.5310    1.9150 ho        1 TLA      0.406000
     13 H3          3.2800    1.3300    0.2800 h1        1 TLA      0.062700
     14 HB          1.8910    2.5780    2.3620 ho        1 TLA      0.406000
@<TRIPOS>BOND
     1    1    3 1   
     2    2    3 1   
     3    3    4 1   
     4    4    5 1   
     5    4    6 1   
     6    4   11 1   
     7    5   12 1   
     8    6    7 1   
     9    6    8 1   
    10    6   13 1   
    11    7   14 1   
    12    8    9 1   
    13    8   10 1   
@<TRIPOS>SUBSTRUCTURE
     1 TLA         1 TEMP              0 ****  ****    0 ROOT
