@<TRIPOS>MOLECULE
molecule
   14    13     1     0     0
SMALL
bcc


@<TRIPOS>ATOM
      1 O1           0.0000     0.0000     0.0000 o          1 TLA      -0.877300
      2 O11          1.8780    -0.0230    -1.1620 o          1 TLA      -0.877300
      3 C1           1.2070     0.0000     0.0000 c          1 TLA       0.880600
      4 C2           1.9610     0.0000     1.3050 c3         1 TLA       0.067100
      5 O2           1.0330     0.0020     2.3910 oh         1 TLA      -0.584800
      6 C3           2.8410     1.2490     1.3840 c3         1 TLA       0.067100
      7 O3           2.0210     2.4150     1.3070 oh         1 TLA      -0.584800
      8 C4           3.5940     1.2500     2.6890 c          1 TLA       0.880600
      9 O4           3.4440     2.1560     3.4720 o          1 TLA      -0.877300
     10 O41          4.4330     0.2440     2.9810 o          1 TLA      -0.877300
     11 H2           2.5840    -0.8850     1.3630 h1         1 TLA       0.036200
     12 HA           0.8280    -0.8870     2.6300 ho         1 TLA       0.357000
     13 H3           3.5450     1.2470     0.5610 h1         1 TLA       0.036200
     14 HB           2.5070     3.1160     0.9050 ho         1 TLA       0.357000
@<TRIPOS>BOND
     1     1     3 1
     2     2     3 1
     3     3     4 1
     4     4     5 1
     5     4     6 1
     6     4    11 1
     7     5    12 1
     8     6     7 1
     9     6     8 1
    10     6    13 1
    11     7    14 1
    12     8     9 1
    13     8    10 1
@<TRIPOS>SUBSTRUCTURE
     1 TLA         1 TEMP              0 ****  ****    0 ROOT
