@<TRIPOS>MOLECULE
TLD
   17    17     1     0     0
SMALL
bcc


@<TRIPOS>ATOM
      1 C1          0.0680   -0.2550   -0.0250 ca        1 TLD     -0.124000
      2 C2          1.4580   -0.1080   -0.0480 ca        1 TLD      0.007900
      3 C3          2.1490    0.1030    1.1590 ca        1 TLD      0.017900
      4 C4          1.4370    0.1650    2.3600 ca        1 TLD     -0.130000
      5 C5          0.0490    0.0200    2.3800 ca        1 TLD     -0.066300
      6 C6         -0.6320   -0.1930    1.1740 ca        1 TLD     -0.122000
      7 C13        -0.6970    0.1020    3.6560 c3        1 TLD     -0.053800
      8 S15         2.3970   -0.1690   -1.4550 sh        1 TLD     -0.217700
      9 S17         3.8300    0.2690    1.0470 sh        1 TLD     -0.217700
     10 H1         -0.4790   -0.4220   -0.9660 ha        1 TLD      0.132000
     11 H4          1.9760    0.3300    3.3060 ha        1 TLD      0.132000
     12 H6         -1.7260   -0.3110    1.1770 ha        1 TLD      0.135000
     13 H131       -0.0580   -0.2160    4.5170 hc        1 TLD      0.046033
     14 H132       -1.0280    1.1570    3.8360 hc        1 TLD      0.046033
     15 H133       -1.6050   -0.5490    3.6310 hc        1 TLD      0.046033
     16 HS15        1.4470   -0.3760   -2.3520 hs        1 TLD      0.183800
     17 HS17        4.1260    0.4470    2.3230 hs        1 TLD      0.184800
@<TRIPOS>BOND
     1    1    2 ar  
     2    1    6 ar  
     3    1   10 1   
     4    2    3 ar  
     5    2    8 1   
     6    3    4 ar  
     7    3    9 1   
     8    4    5 ar  
     9    4   11 1   
    10    5    6 ar  
    11    5    7 1   
    12    6   12 1   
    13    7   13 1   
    14    7   14 1   
    15    7   15 1   
    16    8   16 1   
    17    9   17 1   
@<TRIPOS>SUBSTRUCTURE
     1 TLD         1 TEMP              0 ****  ****    0 ROOT
