@<TRIPOS>MOLECULE
molecule
   17    17     1     0     0
SMALL
bcc


@<TRIPOS>ATOM
      1 C1           0.0000     0.0000     0.0000 ca         1 TLD      -0.098000
      2 C2           1.3870     0.0000     0.0000 ca         1 TLD       0.060900
      3 C3           2.0800     0.0000     1.2120 ca         1 TLD       0.071900
      4 C4           1.3780    -0.0000     2.4080 ca         1 TLD      -0.104000
      5 C5          -0.0060    -0.0010     2.3970 ca         1 TLD      -0.070300
      6 C6          -0.6920    -0.0010     1.1970 ca         1 TLD      -0.119000
      7 C13         -0.7660    -0.0020     3.6980 c3         1 TLD      -0.050800
      8 S15          2.2700     0.0000    -1.5240 sh         1 TLD      -0.340700
      9 S17          3.8420     0.0010     1.2210 sh         1 TLD      -0.340700
     10 H1          -0.5410     0.0000    -0.9380 ha         1 TLD       0.146000
     11 H4           1.9120    -0.0000     3.3500 ha         1 TLD       0.146000
     12 H6          -1.7750    -0.0010     1.1940 ha         1 TLD       0.137000
     13 H131        -1.8030    -0.2550     3.5100 hc         1 TLD       0.047700
     14 H132        -0.7110     0.9810     4.1490 hc         1 TLD       0.047700
     15 H133        -0.3320    -0.7330     4.3700 hc         1 TLD       0.047700
     16 HS15         2.1950     1.2040    -2.0790 hs         1 TLD       0.209800
     17 HS17         4.2830    -1.2010     1.5710 hs         1 TLD       0.209800
@<TRIPOS>BOND
     1     1     2 ar
     2     1     6 ar
     3     2     3 ar
     4     2     8 1
     5     3     4 ar
     6     3     9 1
     7     4     5 ar
     8     5     6 ar
     9     5     7 1
    10     1    10 1
    11     4    11 1
    12     6    12 1
    13     7    13 1
    14     7    14 1
    15     7    15 1
    16     8    16 1
    17     9    17 1
@<TRIPOS>SUBSTRUCTURE
     1 TLD         1 TEMP              0 ****  ****    0 ROOT
