@<TRIPOS>MOLECULE
TLE
   31    31     1     0     0
SMALL
bcc


@<TRIPOS>ATOM
      1 C           0.0480    0.5720   -0.1420 c2        1 TLE     -0.201000
      2 O           4.9100   -3.7710    4.4610 o         1 TLE     -0.498100
      3 S           3.3460   -1.7160    3.8280 ss        1 TLE     -0.275700
      4 C1          1.2720    0.0940    0.0890 ce        1 TLE     -0.138000
      5 O1          6.1280   -0.1210    1.5880 oh        1 TLE     -0.469100
      6 C2          1.8790   -0.0400    1.4110 ce        1 TLE     -0.043200
      7 C3          0.9760    0.1090    2.5780 c3        1 TLE     -0.070900
      8 C4          3.2010   -0.2880    1.4960 c2        1 TLE     -0.166200
      9 C5          4.0130   -0.4130    2.7320 c3        1 TLE      0.132500
     10 C6          4.0850    0.8960    3.4960 c3        1 TLE     -0.080100
     11 C7          4.7820   -2.7130    3.8480 c         1 TLE      0.615900
     12 C8          5.8030   -2.0760    3.0010 ce        1 TLE     -0.317400
     13 C9          7.1240   -2.7200    2.8240 c3        1 TLE     -0.023200
     14 C10         8.2300   -1.9850    3.5440 c3        1 TLE     -0.095100
     15 C11         5.4040   -0.9120    2.4260 c2        1 TLE      0.133900
     16 H          -0.6270    0.9120    0.6540 ha        1 TLE      0.115500
     17 HA         -0.3570    0.6550   -1.1600 ha        1 TLE      0.115500
     18 H1          1.9080   -0.2290   -0.7550 ha        1 TLE      0.124000
     19 HO1         7.0000   -0.5320    1.4620 ho        1 TLE      0.436000
     20 H3          0.7100    1.1870    2.7190 hc        1 TLE      0.052367
     21 H3A         0.0320   -0.4680    2.4130 hc        1 TLE      0.052367
     22 H3B         1.4470   -0.2660    3.5230 hc        1 TLE      0.052367
     23 H4          3.7930   -0.3920    0.5680 ha        1 TLE      0.141000
     24 H6          3.0560    1.2730    3.7120 hc        1 TLE      0.058367
     25 H6A         4.6260    1.6550    2.8780 hc        1 TLE      0.058367
     26 H6B         4.6310    0.7580    4.4600 hc        1 TLE      0.058367
     27 H9          7.0680   -3.7750    3.2100 hc        1 TLE      0.059200
     28 H9A         7.3650   -2.7800    1.7270 hc        1 TLE      0.059200
     29 H10         8.0420   -1.9730    4.6450 hc        1 TLE      0.037700
     30 H10A        9.2080   -2.4910    3.3580 hc        1 TLE      0.037700
     31 H10B        8.3050   -0.9270    3.1910 hc        1 TLE      0.037700
@<TRIPOS>BOND
     1    1    4 2   
     2    1   16 1   
     3    1   17 1   
     4    2   11 2   
     5    3    9 1   
     6    3   11 1   
     7    4    6 1   
     8    4   18 1   
     9    5   15 1   
    10    5   19 1   
    11    6    7 1   
    12    6    8 2   
    13    7   20 1   
    14    7   21 1   
    15    7   22 1   
    16    8    9 1   
    17    8   23 1   
    18    9   10 1   
    19    9   15 1   
    20   10   24 1   
    21   10   25 1   
    22   10   26 1   
    23   11   12 1   
    24   12   13 1   
    25   12   15 2   
    26   13   14 1   
    27   13   27 1   
    28   13   28 1   
    29   14   29 1   
    30   14   30 1   
    31   14   31 1   
@<TRIPOS>SUBSTRUCTURE
     1 TLE         1 TEMP              0 ****  ****    0 ROOT
