@<TRIPOS>MOLECULE
molecule
   31    31     1     0     0
SMALL
bcc


@<TRIPOS>ATOM
      1 C            0.0000     0.0000     0.0000 c2         1 TLE      -0.201000
      2 O            4.6930    -3.5660     4.2920 o          1 TLE      -0.482100
      3 S            3.2980    -1.3690     3.6490 ss         1 TLE      -0.274700
      4 C1           1.3290     0.0000     0.0000 ce         1 TLE      -0.137000
      5 O1           6.4360    -0.2030     1.5510 oh         1 TLE      -0.492100
      6 C2           2.0640     0.0000     1.2740 ce         1 TLE      -0.060200
      7 C3           1.3090     0.0000     2.5790 c3         1 TLE      -0.061900
      8 C4           3.3930    -0.0010     1.2750 c2         1 TLE      -0.168200
      9 C5           4.1460    -0.1690     2.5690 c3         1 TLE       0.073500
     10 C6           4.2960     1.1780     3.2800 c3         1 TLE      -0.074100
     11 C7           4.6560    -2.5070     3.6940 c          1 TLE       0.606900
     12 C8           5.6860    -1.9550     2.9070 ce         1 TLE      -0.243400
     13 C9           6.9920    -2.6880     2.7390 c3         1 TLE      -0.026200
     14 C10          7.9160    -2.3580     3.9130 c3         1 TLE      -0.088100
     15 C11          5.4960    -0.7910     2.3180 c2         1 TLE       0.124900
     16 H           -0.5420    -0.0000    -0.9380 ha         1 TLE       0.117500
     17 HA          -0.5420     0.0000     0.9380 ha         1 TLE       0.117500
     18 H1           1.8710    -0.0000    -0.9380 ha         1 TLE       0.131000
     19 HO1          6.8060     0.5310     2.0140 ho         1 TLE       0.432000
     20 H3           1.9980     0.1880     3.3940 hc         1 TLE       0.054700
     21 H3A          0.8350    -0.9630     2.7220 hc         1 TLE       0.054700
     22 H3B          0.5540     0.7760     2.5590 hc         1 TLE       0.054700
     23 H4           3.9320    -0.0010     0.3360 ha         1 TLE       0.150000
     24 H6           5.2460     1.2090     3.7990 hc         1 TLE       0.052033
     25 H6A          3.4910     1.3020     3.9930 hc         1 TLE       0.052033
     26 H6B          4.2580     1.9780     2.5500 hc         1 TLE       0.052033
     27 H9           7.4620    -2.3820     1.8130 hc         1 TLE       0.062700
     28 H9A          6.8060    -3.7550     2.7150 hc         1 TLE       0.062700
     29 H10          8.9260    -2.2150     3.5480 hc         1 TLE       0.036700
     30 H10A         7.5750    -1.4510     4.3970 hc         1 TLE       0.036700
     31 H10B         7.9010    -3.1750     4.6250 hc         1 TLE       0.036700
@<TRIPOS>BOND
     1     1     4 2
     2     2    11 2
     3     3     9 1
     4     3    11 1
     5     4     6 1
     6     5    15 1
     7     6     7 1
     8     6     8 2
     9     8     9 1
    10     9    10 1
    11     9    15 1
    12    11    12 1
    13    12    13 1
    14    12    15 2
    15    13    14 1
    16     1    16 1
    17     1    17 1
    18     4    18 1
    19     5    19 1
    20     7    20 1
    21     7    21 1
    22     7    22 1
    23     8    23 1
    24    10    24 1
    25    10    25 1
    26    10    26 1
    27    13    27 1
    28    13    28 1
    29    14    29 1
    30    14    30 1
    31    14    31 1
@<TRIPOS>SUBSTRUCTURE
     1 TLE         1 TEMP              0 ****  ****    0 ROOT
