@<TRIPOS>MOLECULE
TLF
   29    30     1     0     0
SMALL
bcc


@<TRIPOS>ATOM
      1 C4           0.0000     0.0000     0.0000 ca         1 TLF      -0.052000
      2 C5           1.3810     0.0000     0.0000 ca         1 TLF      -0.160000
      3 C6           2.0740     0.0000     1.2040 ca         1 TLF       0.125600
      4 C8           4.1700    -0.0890     0.0100 ca         1 TLF      -0.003400
      5 C9           4.7440    -1.2940    -0.3740 ca         1 TLF      -0.137000
      6 C10          5.4310    -1.3820    -1.5670 ca         1 TLF      -0.129000
      7 C11          5.5550    -0.2750    -2.3900 ca         1 TLF      -0.136000
      8 C12          4.9920     0.9290    -2.0260 ca         1 TLF      -0.061000
      9 C13          4.2920     1.0360    -0.8220 ca         1 TLF      -0.097600
     10 C14          3.6880     2.3190    -0.4260 c          1 TLF       0.967200
     11 O16          3.6960     3.3600    -1.2830 o          1 TLF      -0.877300
     12 O15          3.1810     2.4410     0.6720 o          1 TLF      -0.877300
     13 N7           3.4710     0.0010     1.2080 nu         1 TLF      -0.199000
     14 C1           1.3750     0.0000     2.4050 ca         1 TLF      -0.177300
     15 C17          2.1220     0.0020     3.7130 c3         1 TLF       0.057200
     16 C2          -0.0070     0.0010     2.3980 ca         1 TLF       0.030400
     17 Cl          -0.8820     0.0090     3.8960 cl         1 TLF      -0.088400
     18 C3          -0.6940     0.0050     1.1960 ca         1 TLF      -0.192000
     19 H1          -0.5410     0.0020    -0.9390 ha         1 TLF       0.089000
     20 H2           1.9230    -0.0040    -0.9380 ha         1 TLF       0.128000
     21 H3           4.6520    -2.1650     0.2630 ha         1 TLF       0.092000
     22 H4           5.8780    -2.3240    -1.8620 ha         1 TLF       0.083000
     23 H5           6.0980    -0.3560    -3.3240 ha         1 TLF       0.085000
     24 H6           5.0920     1.7920    -2.6740 ha         1 TLF       0.131000
     25 H8           3.9690     0.0450     2.0750 hn         1 TLF       0.281800
     26 H9           1.4150    -0.0310     4.5330 hc         1 TLF       0.006367
     27 H10          2.7200     0.9030     3.7870 hc         1 TLF       0.006367
     28 H11          2.7700    -0.8660     3.7600 hc         1 TLF       0.006367
     29 H12         -1.7770     0.0050     1.1920 ha         1 TLF       0.099000
@<TRIPOS>BOND
     1     1     2 ar  
     2     1    18 ar  
     3     1    19 1   
     4     2     3 ar  
     5     2    20 1   
     6     3    13 1   
     7     3    14 ar  
     8     4     5 ar  
     9     4     9 ar  
    10     4    13 1   
    11     5     6 ar  
    12     5    21 1   
    13     6     7 ar  
    14     6    22 1   
    15     7     8 ar  
    16     7    23 1   
    17     8     9 ar  
    18     8    24 1   
    19     9    10 1   
    20    10    11 1   
    21    10    12 1   
    22    13    25 1   
    23    14    15 1   
    24    14    16 ar  
    25    15    26 1   
    26    15    27 1   
    27    15    28 1   
    28    16    17 1   
    29    16    18 ar  
    30    18    29 1   
@<TRIPOS>SUBSTRUCTURE
     1 TLF         1 TEMP              0 ****  ****    0 ROOT
