@<TRIPOS>MOLECULE
molecule
   29    30     1     0     0
SMALL
bcc


@<TRIPOS>ATOM
      1 C4           0.0000     0.0000     0.0000 ca         1 TLF      -0.086000
      2 C5           1.3810     0.0000     0.0000 ca         1 TLF      -0.171000
      3 C6           2.0740     0.0000     1.2040 ca         1 TLF       0.272600
      4 C8           4.1700    -0.0890     0.0100 ca         1 TLF       0.143600
      5 C9           4.7440    -1.2940    -0.3740 ca         1 TLF      -0.164000
      6 C10          5.4310    -1.3820    -1.5670 ca         1 TLF      -0.152000
      7 C11          5.5550    -0.2750    -2.3900 ca         1 TLF      -0.162000
      8 C12          4.9920     0.9290    -2.0260 ca         1 TLF      -0.091000
      9 C13          4.2920     1.0360    -0.8220 ca         1 TLF      -0.105600
     10 C14          3.6880     2.3190    -0.4260 c          1 TLF       0.877200
     11 O16          3.6960     3.3600    -1.2830 o          1 TLF      -0.827800
     12 O15          3.1810     2.4410     0.6720 o          1 TLF      -0.827800
     13 N7           3.4710     0.0010     1.2080 nu         1 TLF      -0.659000
     14 C1           1.3750     0.0000     2.4050 ca         1 TLF      -0.158300
     15 C17          2.1220     0.0020     3.7130 c3         1 TLF      -0.044800
     16 C2          -0.0070     0.0010     2.3980 ca         1 TLF       0.072400
     17 Cl          -0.8820     0.0090     3.8960 cl         1 TLF      -0.155400
     18 C3          -0.6940     0.0050     1.1960 ca         1 TLF      -0.198000
     19 H1          -0.5410     0.0020    -0.9390 ha         1 TLF       0.121000
     20 H2           1.9230    -0.0040    -0.9380 ha         1 TLF       0.150000
     21 H3           4.6520    -2.1650     0.2630 ha         1 TLF       0.114000
     22 H4           5.8780    -2.3240    -1.8620 ha         1 TLF       0.104000
     23 H5           6.0980    -0.3560    -3.3240 ha         1 TLF       0.107000
     24 H6           5.0920     1.7920    -2.6740 ha         1 TLF       0.158000
     25 H8           3.9690     0.0450     2.0750 hn         1 TLF       0.443800
     26 H9           1.4150    -0.0310     4.5330 hc         1 TLF       0.039700
     27 H10          2.7200     0.9030     3.7870 hc         1 TLF       0.039700
     28 H11          2.7700    -0.8660     3.7600 hc         1 TLF       0.039700
     29 H12         -1.7770     0.0050     1.1920 ha         1 TLF       0.120000
@<TRIPOS>BOND
     1    17    16 1
     2    16    18 ar
     3    16    14 ar
     4    18     1 ar
     5    14    15 1
     6    14     3 ar
     7     1     2 ar
     8     3     2 ar
     9     3    13 1
    10    13     4 1
    11     4     5 ar
    12     4     9 ar
    13     5     6 ar
    14    12    10 1
    15    11    10 1
    16    10     9 1
    17     9     8 ar
    18     6     7 ar
    19     8     7 ar
    20     1    19 1
    21     2    20 1
    22     5    21 1
    23     6    22 1
    24     7    23 1
    25     8    24 1
    26    13    25 1
    27    15    26 1
    28    15    27 1
    29    15    28 1
    30    18    29 1
@<TRIPOS>SUBSTRUCTURE
     1 TLF         1 TEMP              0 ****  ****    0 ROOT
