@<TRIPOS>MOLECULE
TLG
   30    30     1     0     0
SMALL
bcc


@<TRIPOS>ATOM
      1 S           0.4090   -0.4270   -0.2080 ss        1 TLG      0.187000
      2 C1          3.7120   -2.8460   -0.8350 c3        1 TLG     -0.190000
      3 C3          2.0110    1.7560   -0.8890 c3        1 TLG     -0.176000
      4 C4          2.0140    0.4490   -0.1300 c3        1 TLG     -0.183000
      5 O6          3.3770    1.3250    1.6510 oh        1 TLG     -0.217000
      6 C7          6.0860   -1.1880   -0.9580 c2        1 TLG     -0.188000
      7 C8          5.0480   -0.7920   -0.2280 c2        1 TLG     -0.162000
      8 C10         2.7420   -0.6000   -0.8470 c1        1 TLG      0.014000
      9 C11         0.1850   -0.5140    1.5380 c2        1 TLG      0.174000
     10 O11        -0.7830   -1.0520    2.0720 o         1 TLG     -0.254000
     11 C12         1.3070    0.1500    2.2050 c2        1 TLG     -0.415000
     12 C13         1.4030    0.2630    3.6610 c2        1 TLG      0.311000
     13 C14         0.3090   -0.3220    4.4870 c3        1 TLG     -0.255000
     14 C15         2.2510    0.6610    1.3440 c2        1 TLG      0.186000
     15 ONA         2.3780    0.8360    4.1830 o         1 TLG     -0.358000
     16 H1          3.8770   -2.7520   -1.9350 hc        1 TLG      0.085000
     17 H1A         2.7280   -3.3450   -0.6680 hc        1 TLG      0.085000
     18 H1B         4.5190   -3.4820   -0.3970 hc        1 TLG      0.085000
     19 H3          1.8620    1.5620   -1.9800 hc        1 TLG      0.104667
     20 H3A         1.1940    2.4190   -0.5180 hc        1 TLG      0.104667
     21 H3B         2.9930    2.2720   -0.7410 hc        1 TLG      0.104667
     22 HO6         3.4620    1.4290    2.6230 ho        1 TLG      0.283000
     23 H7          5.1100    0.0980    0.4240 ha        1 TLG      0.130000
     24 H7A         6.0590   -2.0610   -1.6250 ha        1 TLG      0.120000
     25 H8          7.0460   -0.6530   -0.9320 ha        1 TLG      0.120000
     26 H10         3.4740   -1.6220    0.9240 hc        1 TLG      0.087000
     27 H14         0.2240   -1.4180    4.2810 hc        1 TLG      0.116000
     28 H14A       -0.6660    0.1530    4.2150 hc        1 TLG      0.116000
     29 H14B        0.5120   -0.1610    5.5730 hc        1 TLG      0.116000
     30 C9          3.7160   -1.4780   -0.1750 c3        1 TLG     -0.132000
@<TRIPOS>BOND
     1    1    4 1   
     2    1    9 1   
     3    2   16 1   
     4    2   17 1   
     5    2   18 1   
     6    2   30 1   
     7    3    4 1   
     8    3   19 1   
     9    3   20 1   
    10    3   21 1   
    11    4    8 1   
    12    4   14 1   
    13    5   14 1   
    14    5   22 1   
    15    6    7 1   
    16    6   24 1   
    17    6   25 1   
    18    7   23 1   
    19    7   30 1   
    20    8   30 1   
    21    9   10 1   
    22    9   11 1   
    23   11   12 1   
    24   11   14 1   
    25   12   13 1   
    26   12   15 1   
    27   13   27 1   
    28   13   28 1   
    29   13   29 1   
    30   26   30 1   
@<TRIPOS>SUBSTRUCTURE
     1 TLG         1 TEMP              0 ****  ****    0 ROOT
