@<TRIPOS>MOLECULE
molecule
   30    30     1     0     0
SMALL
bcc


@<TRIPOS>ATOM
      1 S            0.0000     0.0000     0.0000 ss         1 TLG      -0.265700
      2 C1           4.1720    -2.6500    -1.5170 c3         1 TLG      -0.053900
      3 C3           2.3490     1.2550    -0.6960 c3         1 TLG      -0.073100
      4 C4           1.8200     0.0000     0.0000 c3         1 TLG       0.083500
      5 O6           3.4980    -0.0010     1.8490 oh         1 TLG      -0.463100
      6 C7           5.9010    -0.6200    -0.3930 c2         1 TLG      -0.201000
      7 C8           4.5920    -0.4360    -0.2620 ce         1 TLG      -0.150000
      8 C10          2.3420    -1.2360    -0.6870 c2         1 TLG      -0.176200
      9 C11         -0.1690     0.0000     1.7630 c          1 TLG       0.636900
     10 O11         -1.2110     0.0010     2.3900 o          1 TLG      -0.485100
     11 C12          1.1830     0.0010     2.3240 ce         1 TLG      -0.408400
     12 C13          1.4060     0.0010     3.7680 c          1 TLG       0.602300
     13 C14          0.2400    -0.1430     4.7110 c3         1 TLG      -0.179100
     14 C15          2.2170     0.0000     1.4510 c2         1 TLG       0.227900
     15 ONA          2.5320     0.1170     4.2080 o          1 TLG      -0.555100
     16 H1           4.7910    -3.2220    -0.8360 hc         1 TLG       0.048367
     17 H1A          3.3390    -3.2580    -1.8460 hc         1 TLG       0.048367
     18 H1B          4.7620    -2.3500    -2.3750 hc         1 TLG       0.048367
     19 H3           1.5160     1.8740    -1.0070 hc         1 TLG       0.057367
     20 H3A          2.9310     0.9690    -1.5640 hc         1 TLG       0.057367
     21 H3B          2.9750     1.8120    -0.0090 hc         1 TLG       0.057367
     22 HO6          3.6570     0.7500     2.3970 ho         1 TLG       0.458000
     23 H7           6.5940     0.1080     0.0120 ha         1 TLG       0.115000
     24 H7A          6.2760    -1.4980    -0.9040 ha         1 TLG       0.115000
     25 H8           4.2170     0.4430     0.2490 ha         1 TLG       0.147000
     26 H10          1.6500    -1.9640    -1.0910 ha         1 TLG       0.153000
     27 H14         -0.4100     0.7190     4.6160 hc         1 TLG       0.069700
     28 H14A         0.6050    -0.2080     5.7290 hc         1 TLG       0.069700
     29 H14B        -0.3130    -1.0420     4.4670 hc         1 TLG       0.069700
     30 C9           3.6510    -1.4230    -0.8120 ce         1 TLG      -0.053200
@<TRIPOS>BOND
     1     1     4 1
     2     1     9 1
     3     2    30 1
     4     3     4 1
     5     4     8 1
     6     4    14 1
     7     5    14 1
     8     6     7 2
     9     7    30 1
    10    30     8 2
    11     9    10 2
    12     9    11 1
    13    11    12 1
    14    11    14 2
    15    12    13 1
    16    12    15 2
    17     2    16 1
    18     2    17 1
    19     2    18 1
    20     3    19 1
    21     3    20 1
    22     3    21 1
    23     5    22 1
    24     6    23 1
    25     6    24 1
    26     7    25 1
    27     8    26 1
    28    13    27 1
    29    13    28 1
    30    13    29 1
@<TRIPOS>SUBSTRUCTURE
     1 TLG         1 TEMP              0 ****  ****    0 ROOT
