@<TRIPOS>MOLECULE
TLH
   30    30     1     0     0
SMALL
bcc


@<TRIPOS>ATOM
      1 F2         -0.2480    1.4730   -1.2450 f         1 TLH     -0.217300
      2 C10         0.5080    0.6780   -0.4280 c3        1 TLH      0.565900
      3 F          -0.0670    0.8070    0.8110 f         1 TLH     -0.217300
      4 F1          0.2520   -0.6150   -0.7940 f         1 TLH     -0.217300
      5 C9          2.0320    1.0440   -0.4120 c         1 TLH      0.584300
      6 O1          2.5180    1.3830    0.6740 o         1 TLH     -0.530100
      7 C8          2.7960    0.9770   -1.6370 ce        1 TLH     -0.455400
      8 C7          2.2230    0.5620   -2.9280 c         1 TLH      0.612900
      9 O           1.0560    0.2290   -3.1200 o         1 TLH     -0.474100
     10 S           3.4710    0.6100   -4.1450 ss        1 TLH     -0.224700
     11 C11         4.1370    1.2990   -1.6960 c2        1 TLH      0.271900
     12 O2          4.9330    1.7150   -0.7020 oh        1 TLH     -0.443100
     13 C5          4.7920    1.2280   -3.0560 c3        1 TLH      0.103500
     14 C6          5.1410    2.6390   -3.5080 c3        1 TLH     -0.084100
     15 C4          5.9830    0.3520   -3.1350 c2        1 TLH     -0.185200
     16 C2          6.1330   -0.9150   -2.6970 ce        1 TLH     -0.018200
     17 C3          5.0770   -1.7120   -2.0310 c3        1 TLH     -0.078900
     18 C1          7.4260   -1.5720   -2.8890 ce        1 TLH     -0.148000
     19 C           7.7860   -2.7220   -2.3160 c2        1 TLH     -0.187000
     20 H2          4.4430    1.7500    0.1460 ho        1 TLH      0.480000
     21 H61C        5.5310    2.6160   -4.5540 hc        1 TLH      0.063700
     22 H62C        4.2390    3.2970   -3.4770 hc        1 TLH      0.063700
     23 H63C        5.9250    3.0670   -2.8350 hc        1 TLH      0.063700
     24 H4          6.8430    0.8410   -3.6330 ha        1 TLH      0.142000
     25 H31C        4.0730   -1.2280   -2.1240 hc        1 TLH      0.054700
     26 H32C        5.0130   -2.7300   -2.4930 hc        1 TLH      0.054700
     27 H33C        5.3160   -1.8350   -0.9450 hc        1 TLH      0.054700
     28 H1          8.1290   -1.0430   -3.5570 ha        1 TLH      0.127000
     29 HC1         7.1340   -3.2910   -1.6400 ha        1 TLH      0.119000
     30 HC2         8.7740   -3.1690   -2.4920 ha        1 TLH      0.119000
@<TRIPOS>BOND
     1    1    2 1   
     2    2    3 1   
     3    2    4 1   
     4    2    5 1   
     5    5    6 2   
     6    5    7 1   
     7    7    8 1   
     8    7   11 2   
     9    8    9 2   
    10    8   10 1   
    11   10   13 1   
    12   11   12 1   
    13   11   13 1   
    14   12   20 1   
    15   13   14 1   
    16   13   15 1   
    17   14   21 1   
    18   14   22 1   
    19   14   23 1   
    20   15   16 2   
    21   15   24 1   
    22   16   17 1   
    23   16   18 1   
    24   17   25 1   
    25   17   26 1   
    26   17   27 1   
    27   18   19 2   
    28   18   28 1   
    29   19   29 1   
    30   19   30 1   
@<TRIPOS>SUBSTRUCTURE
     1 TLH         1 TEMP              0 ****  ****    0 ROOT
