@<TRIPOS>MOLECULE
molecule
   30    30     1     0     0
SMALL
bcc


@<TRIPOS>ATOM
      1 F2           0.0000     0.0000     0.0000 f          1 TLH      -0.205967
      2 C10          1.4000     0.0000     0.0000 c3         1 TLH       0.544900
      3 F            1.8650     0.0000     1.3200 f          1 TLH      -0.205967
      4 F1           1.8670    -1.1410    -0.6600 f          1 TLH      -0.205967
      5 C9           1.9010     1.2320    -0.7090 c          1 TLH       0.561300
      6 O1           1.5370     2.3320    -0.3480 o          1 TLH      -0.439100
      7 C8           2.8280     1.1020    -1.8320 ce         1 TLH      -0.333400
      8 C7           2.4200     0.4720    -3.0870 c          1 TLH       0.616900
      9 O            1.3250     0.0050    -3.3390 o          1 TLH      -0.461100
     10 S            3.8190     0.5140    -4.1710 ss         1 TLH      -0.279700
     11 C11          4.0970     1.5650    -1.7540 c2         1 TLH       0.126900
     12 O2           4.5820     2.1650    -0.6570 oh         1 TLH      -0.497100
     13 C5           4.9260     1.3490    -2.9920 c3         1 TLH       0.052500
     14 C6           5.3850     2.6950    -3.5580 c3         1 TLH      -0.049100
     15 C4           6.1160     0.4770    -2.6850 c2         1 TLH      -0.399200
     16 C2           5.9580    -0.8340    -2.5370 ce         1 TLH       0.101800
     17 C3           4.5730    -1.4250    -2.4840 c3         1 TLH      -0.139900
     18 C1           7.1360    -1.7080    -2.4250 ce         1 TLH      -0.147000
     19 C            6.9780    -3.0200    -2.2770 c2         1 TLH      -0.167000
     20 H2           4.3390     3.0760    -0.6640 ho         1 TLH       0.462000
     21 H61C         5.8230     2.5440    -4.5370 hc         1 TLH       0.059700
     22 H62C         4.5350     3.3610    -3.6410 hc         1 TLH       0.059700
     23 H63C         6.1230     3.1320    -2.8960 hc         1 TLH       0.059700
     24 H4           5.4820     0.8450    -1.8870 ha         1 TLH       0.286000
     25 H31C         4.5760    -2.2950    -1.8390 hc         1 TLH       0.065367
     26 H32C         3.8810    -0.6890    -2.0940 hc         1 TLH       0.065367
     27 H33C         4.2670    -1.7160    -3.4820 hc         1 TLH       0.065367
     28 H1           8.1310    -1.2830    -2.4630 ha         1 TLH       0.157000
     29 HC1          7.8450    -3.6630    -2.1950 ha         1 TLH       0.123000
     30 HC2          5.9820    -3.4440    -2.2390 ha         1 TLH       0.123000
@<TRIPOS>BOND
     1     1     2 1
     2     2     3 1
     3     2     4 1
     4     2     5 1
     5     5     6 2
     6     5     7 1
     7     7     8 1
     8     7    11 2
     9     8     9 2
    10     8    10 1
    11    10    13 1
    12    11    12 1
    13    11    13 1
    14    13    14 1
    15    13    15 1
    16    15    16 2
    17    16    17 1
    18    16    18 1
    19    18    19 2
    20    12    20 1
    21    14    21 1
    22    14    22 1
    23    14    23 1
    24    15    24 1
    25    17    25 1
    26    17    26 1
    27    17    27 1
    28    18    28 1
    29    19    29 1
    30    19    30 1
@<TRIPOS>SUBSTRUCTURE
     1 TLH         1 TEMP              0 ****  ****    0 ROOT
