@<TRIPOS>MOLECULE
molecule
   34    34     1     0     0
SMALL
bcc


@<TRIPOS>ATOM
      1 C            0.0000     0.0000     0.0000 c2         1 TLJ      -0.196000
      2 O            4.6950    -3.5670     4.2900 o          1 TLJ      -0.483100
      3 S            3.3000    -1.3690     3.6480 ss         1 TLJ      -0.279700
      4 C1           1.3290     0.0000     0.0000 ce         1 TLJ      -0.142000
      5 O1           6.4380    -0.2040     1.5470 oh         1 TLJ      -0.495100
      6 C2           2.0650     0.0000     1.2740 ce         1 TLJ      -0.051200
      7 C3           1.3110     0.0010     2.5790 c3         1 TLJ      -0.065900
      8 C4           3.3930    -0.0010     1.2730 c2         1 TLJ      -0.180200
      9 C5           4.1470    -0.1690     2.5670 c3         1 TLJ       0.080500
     10 C6           4.2990     1.1780     3.2770 c3         1 TLJ      -0.069100
     11 C7           4.6590    -2.5070     3.6910 c          1 TLJ       0.609900
     12 C8           5.6880    -1.9550     2.9040 ce         1 TLJ      -0.249400
     13 C9           6.9930    -2.6890     2.7360 c3         1 TLJ      -0.019200
     14 C10          7.9190    -2.3590     3.9090 c3         1 TLJ      -0.078400
     15 C11          9.2440    -3.1040     3.7390 c3         1 TLJ      -0.091100
     16 C12          5.4990    -0.7920     2.3150 c2         1 TLJ       0.127900
     17 H           -0.5420    -0.0000    -0.9380 ha         1 TLJ       0.118500
     18 HA          -0.5420     0.0000     0.9380 ha         1 TLJ       0.118500
     19 H1           1.8700    -0.0000    -0.9380 ha         1 TLJ       0.128000
     20 HO1          6.2890    -0.4270     0.6430 ho         1 TLJ       0.432000
     21 H3           1.9680     0.3310     3.3750 hc         1 TLJ       0.057700
     22 H3A          0.9590    -1.0010     2.7930 hc         1 TLJ       0.057700
     23 H3B          0.4650     0.6730     2.5070 hc         1 TLJ       0.057700
     24 H4           3.9310    -0.0010     0.3330 ha         1 TLJ       0.132000
     25 H6           3.7920     1.1410     4.2340 hc         1 TLJ       0.056700
     26 H6A          3.8620     1.9590     2.6670 hc         1 TLJ       0.056700
     27 H6B          5.3500     1.3870     3.4330 hc         1 TLJ       0.056700
     28 H9           6.8070    -3.7560     2.7120 hc         1 TLJ       0.055700
     29 H9A          7.4620    -2.3840     1.8090 hc         1 TLJ       0.055700
     30 H10          8.1050    -1.2920     3.9330 hc         1 TLJ       0.048700
     31 H10A         7.4490    -2.6650     4.8360 hc         1 TLJ       0.048700
     32 H11          9.0560    -4.1700     3.6960 hc         1 TLJ       0.034033
     33 H11A         9.7220    -2.7850     2.8210 hc         1 TLJ       0.034033
     34 H11B         9.8920    -2.8850     4.5790 hc         1 TLJ       0.034033
@<TRIPOS>BOND
     1     1     4 2
     2     2    11 2
     3     3     9 1
     4     3    11 1
     5     4     6 1
     6     5    16 1
     7     6     7 1
     8     6     8 2
     9     8     9 1
    10     9    10 1
    11     9    16 1
    12    11    12 1
    13    12    13 1
    14    12    16 2
    15    13    14 1
    16    14    15 1
    17     1    17 1
    18     1    18 1
    19     4    19 1
    20     5    20 1
    21     7    21 1
    22     7    22 1
    23     7    23 1
    24     8    24 1
    25    10    25 1
    26    10    26 1
    27    10    27 1
    28    13    28 1
    29    13    29 1
    30    14    30 1
    31    14    31 1
    32    15    32 1
    33    15    33 1
    34    15    34 1
@<TRIPOS>SUBSTRUCTURE
     1 TLJ         1 TEMP              0 ****  ****    0 ROOT
