@<TRIPOS>MOLECULE
TLJ
   34    34     1     0     0
SMALL
bcc


@<TRIPOS>ATOM
      1 C           0.1190    0.6350   -0.2130 c2        1 TLJ     -0.201000
      2 O           4.7920   -3.8640    4.4360 o         1 TLJ     -0.498100
      3 S           3.2690   -1.7780    3.8040 ss        1 TLJ     -0.276700
      4 C1          1.3310    0.1390    0.0440 ce        1 TLJ     -0.138000
      5 O1          6.1350   -0.1610    1.6890 oh        1 TLJ     -0.469100
      6 C2          1.8950   -0.0310    1.3820 ce        1 TLJ     -0.043200
      7 C3          0.9570    0.1000    2.5240 c3        1 TLJ     -0.070900
      8 C4          3.2110   -0.2960    1.5020 c2        1 TLJ     -0.166200
      9 C5          3.9820   -0.4570    2.7600 c3        1 TLJ      0.132500
     10 C6          4.0440    0.8320    3.5550 c3        1 TLJ     -0.080100
     11 C7          4.6930   -2.7910    3.8440 c         1 TLJ      0.615900
     12 C8          5.7470   -2.1460    3.0450 ce        1 TLJ     -0.317400
     13 C9          7.0650   -2.7990    2.8930 c3        1 TLJ     -0.023200
     14 C10         8.1550   -2.0940    3.6810 c3        1 TLJ     -0.080400
     15 C11         9.4930   -2.7520    3.4680 c3        1 TLJ     -0.095100
     16 C12         5.3780   -0.9640    2.4850 c2        1 TLJ      0.133900
     17 H          -0.5770    0.9630    0.5700 ha        1 TLJ      0.115500
     18 HA         -0.2530    0.7460   -1.2410 ha        1 TLJ      0.115500
     19 H1          1.9900   -0.1710   -0.7860 ha        1 TLJ      0.124000
     20 HO1         7.0060   -0.5800    1.5770 ho        1 TLJ      0.437000
     21 H3          1.3950   -0.3010    3.4730 hc        1 TLJ      0.052367
     22 H3A         0.0130   -0.4630    2.3160 hc        1 TLJ      0.052367
     23 H3B         0.6980    1.1780    2.6810 hc        1 TLJ      0.052367
     24 H4          3.8300   -0.3850    0.5900 ha        1 TLJ      0.141000
     25 H6          4.6110    1.6010    2.9730 hc        1 TLJ      0.058033
     26 H6A         3.0120    1.2160    3.7480 hc        1 TLJ      0.058033
     27 H6B         4.5580    0.6670    4.5320 hc        1 TLJ      0.058033
     28 H9          7.3490   -2.8260    1.8050 hc        1 TLJ      0.059700
     29 H9A         6.9880   -3.8650    3.2430 hc        1 TLJ      0.059700
     30 H10         7.8940   -2.1130    4.7720 hc        1 TLJ      0.041200
     31 H10A        8.2080   -1.0160    3.3740 hc        1 TLJ      0.041200
     32 H11        10.2810   -2.2250    4.0590 hc        1 TLJ      0.036367
     33 H11A        9.7830   -2.7230    2.3890 hc        1 TLJ      0.036367
     34 H11B        9.4630   -3.8200    3.7930 hc        1 TLJ      0.036367
@<TRIPOS>BOND
     1    1    4 2   
     2    1   17 1   
     3    1   18 1   
     4    2   11 2   
     5    3    9 1   
     6    3   11 1   
     7    4    6 1   
     8    4   19 1   
     9    5   16 1   
    10    5   20 1   
    11    6    7 1   
    12    6    8 2   
    13    7   21 1   
    14    7   22 1   
    15    7   23 1   
    16    8    9 1   
    17    8   24 1   
    18    9   10 1   
    19    9   16 1   
    20   10   25 1   
    21   10   26 1   
    22   10   27 1   
    23   11   12 1   
    24   12   13 1   
    25   12   16 2   
    26   13   14 1   
    27   13   28 1   
    28   13   29 1   
    29   14   15 1   
    30   14   30 1   
    31   14   31 1   
    32   15   32 1   
    33   15   33 1   
    34   15   34 1   
@<TRIPOS>SUBSTRUCTURE
     1 TLJ         1 TEMP              0 ****  ****    0 ROOT
