@<TRIPOS>MOLECULE
molecule
   72    74     1     0     0
SMALL
bcc


@<TRIPOS>ATOM
      1 O2           0.0000     0.0000     0.0000 o          1 TLL      -0.848800
      2 CT           1.2080     0.0000     0.0000 c          1 TLL       0.891600
      3 O1           1.8800     0.0000     1.1620 o          1 TLL      -0.848800
      4 CA           1.9620    -0.0060    -1.3060 c3         1 TLL      -0.000300
      5 CB           2.8410     1.2440    -1.3920 c3         1 TLL      -0.060400
      6 CG           3.6980     1.1780    -2.6570 c3         1 TLL      -0.165400
      7 CD           4.5640     2.4080    -2.7430 c          1 TLL       0.657100
      8 OE2          4.5020     3.2540    -1.8760 o          1 TLL      -0.616100
      9 N            1.0090    -0.0100    -2.4190 ns         1 TLL      -0.528900
     10 C            0.4940    -1.1750    -2.8600 c          1 TLL       0.669700
     11 O            0.8200    -2.2220    -2.3340 o          1 TLL      -0.634100
     12 C11         -0.4650    -1.1810    -3.9820 ca         1 TLL      -0.156600
     13 C16         -0.8360     0.0220    -4.5910 ca         1 TLL      -0.046500
     14 C15         -1.7250     0.0130    -5.6400 ca         1 TLL      -0.222000
     15 C14         -2.2560    -1.1910    -6.0940 ca         1 TLL       0.187600
     16 C13         -1.8900    -2.3900    -5.4890 ca         1 TLL      -0.222000
     17 C12         -1.0000    -2.3880    -4.4400 ca         1 TLL      -0.046500
     18 N10         -3.1560    -1.1950    -7.1550 nu         1 TLL      -0.832600
     19 C9          -3.7160    -2.4620    -7.6340 c3         1 TLL       0.232800
     20 C6          -4.6690    -2.1890    -8.8000 c3         1 TLL       0.210500
     21 N5          -5.7170    -1.2450    -8.3740 nh         1 TLL      -0.704400
     22 C7          -5.3560    -3.4950    -9.2260 c3         1 TLL       0.232800
     23 N8          -6.1820    -3.9680    -8.1050 nu         1 TLL      -0.820000
     24 C8A         -6.9820    -3.0660    -7.4330 cc         1 TLL       0.257000
     25 C4A         -6.7630    -1.7230    -7.5550 cd         1 TLL      -0.016200
     26 N1          -8.0080    -3.5030    -6.6350 na         1 TLL      -0.685000
     27 C2          -8.7880    -2.6040    -5.9750 cd         1 TLL       0.664100
     28 NA2         -9.8090    -3.0570    -5.1800 nz         1 TLL      -0.763600
     29 N3          -8.5830    -1.3090    -6.0830 nc         1 TLL      -0.698100
     30 C4          -7.5930    -0.8260    -6.8530 c          1 TLL       0.716700
     31 O4          -7.4130     0.3810    -6.9430 o          1 TLL      -0.544100
     32 N2           5.4090     2.5670    -3.7820 ns         1 TLL      -0.543900
     33 C3           6.2500     3.7630    -3.8640 c3         1 TLL       0.029700
     34 C5           5.4730     4.8810    -4.5100 c          1 TLL       0.888600
     35 O6           4.3320     4.6970    -4.8650 o          1 TLL      -0.772300
     36 O7           6.0480     6.0810    -4.6920 o          1 TLL      -0.772300
     37 C8           7.4930     3.4550    -4.7010 c3         1 TLL      -0.064400
     38 C10          8.3460     2.4080    -3.9830 c3         1 TLL      -0.172400
     39 C17          9.5710     2.1050    -4.8070 c          1 TLL       0.891600
     40 O18         10.4690     1.2090    -4.3700 o          1 TLL      -0.825300
     41 O19          9.7420     2.6680    -5.8620 o          1 TLL      -0.825300
     42 C1          -5.6750     0.1580    -8.7940 c3         1 TLL       0.240100
     43 HA           2.5850    -0.8900    -1.3600 h1         1 TLL       0.072700
     44 HB1          3.4840     1.2930    -0.5220 hc         1 TLL       0.071700
     45 HB2          2.2130     2.1250    -1.4270 hc         1 TLL       0.071700
     46 HG2          4.3260     0.2960    -2.6220 hc         1 TLL       0.047200
     47 HG1          3.0550     1.1280    -3.5270 hc         1 TLL       0.047200
     48 HN           0.7010     0.8550    -2.8180 hn         1 TLL       0.302500
     49 H16         -0.4220     0.9590    -4.2370 ha         1 TLL       0.151000
     50 H15         -2.0130     0.9450    -6.1130 ha         1 TLL       0.115000
     51 H13         -2.3050    -3.3250    -5.8450 ha         1 TLL       0.115000
     52 H12         -0.7150    -3.3210    -3.9700 ha         1 TLL       0.151000
     53 H10         -3.3790    -0.3400    -7.6250 hn         1 TLL       0.434800
     54 H92         -2.9140    -3.1090    -7.9680 h1         1 TLL       0.041700
     55 H91         -4.2580    -2.9440    -6.8300 h1         1 TLL       0.041700
     56 H6          -4.1230    -1.7730    -9.6380 h1         1 TLL       0.079700
     57 H72         -5.9840    -3.3120   -10.0900 h1         1 TLL       0.057700
     58 H71         -4.6060    -4.2400    -9.4650 h1         1 TLL       0.057700
     59 HN8         -6.1650    -4.9310    -7.8330 hn         1 TLL       0.435800
     60 HN1         -8.1830    -4.4830    -6.5380 hn         1 TLL       0.433800
     61 HA22       -10.4540    -3.5850    -5.7340 hn         1 TLL       0.398467
     62 HA21        -9.4350    -3.6400    -4.4570 hn         1 TLL       0.398467
     63 HN2          5.4260     1.8920    -4.5200 hn         1 TLL       0.307500
     64 H3           6.5520     4.0620    -2.8670 h1         1 TLL       0.087700
     65 H81          8.0710     4.3610    -4.8370 hc         1 TLL       0.063200
     66 H8           7.1900     3.0720    -5.6680 hc         1 TLL       0.063200
     67 H102         8.6480     2.7900    -3.0150 hc         1 TLL       0.038200
     68 H101         7.7680     1.5010    -3.8480 hc         1 TLL       0.038200
     69 H11         -4.8800     0.2950    -9.5170 h1         1 TLL       0.048033
     70 H14         -5.4910     0.7870    -7.9310 h1         1 TLL       0.048033
     71 H1          -6.6220     0.4290    -9.2430 h1         1 TLL       0.048033
     72 HA23       -10.2970    -2.2770    -4.7860 hn         1 TLL       0.398467
@<TRIPOS>BOND
     1    29    27 2
     2    29    30 1
     3    28    27 1
     4    31    30 2
     5    27    26 1
     6    30    25 1
     7    26    24 1
     8    25    24 2
     9    25    21 1
    10    42    21 1
    11    24    23 1
    12    21    20 1
    13    35    34 1
    14    23    22 1
    15    41    39 1
    16    36    34 1
    17    34    33 1
    18    20    22 1
    19    20    19 1
    20    19    18 1
    21    37    33 1
    22    37    38 1
    23    33    32 1
    24    39    38 1
    25    39    40 1
    26    18    15 1
    27    32     7 1
    28    14    15 ar
    29    14    13 ar
    30    15    16 ar
    31     7     8 2
    32     7     6 1
    33    13    12 ar
    34     6     5 1
    35    16    17 ar
    36    12    17 ar
    37    12    10 1
    38     5     4 1
    39     9    10 1
    40     9     4 1
    41    10    11 2
    42     4     2 1
    43     1     2 1
    44     2     3 1
    45     4    43 1
    46     5    44 1
    47     5    45 1
    48     6    46 1
    49     6    47 1
    50     9    48 1
    51    13    49 1
    52    14    50 1
    53    16    51 1
    54    17    52 1
    55    18    53 1
    56    19    54 1
    57    19    55 1
    58    20    56 1
    59    22    57 1
    60    22    58 1
    61    23    59 1
    62    26    60 1
    63    28    61 1
    64    28    62 1
    65    32    63 1
    66    33    64 1
    67    37    65 1
    68    37    66 1
    69    38    67 1
    70    38    68 1
    71    42    69 1
    72    42    70 1
    73    42    71 1
    74    72    28 1
@<TRIPOS>SUBSTRUCTURE
     1 TLL         1 TEMP              0 ****  ****    0 ROOT
