@<TRIPOS>MOLECULE
TLL
   74    76     1     0     0
SMALL
bcc


@<TRIPOS>ATOM
      1 O2         -1.5410    0.1830   -2.7440 oh        1 TLL     -0.598100
      2 CT         -0.8610   -0.6440   -1.9210 c         1 TLL      0.613100
      3 O1         -1.4630   -1.3750   -1.1380 o         1 TLL     -0.507000
      4 CA          0.6560   -0.5250   -2.0600 c3        1 TLL      0.077500
      5 CB          1.0840    0.7150   -1.2650 c3        1 TLL     -0.096400
      6 CG          2.5800    0.9450   -1.2260 c3        1 TLL     -0.176400
      7 CD          2.9740    2.0190   -2.2310 c         1 TLL      0.627100
      8 OE2         2.3760    3.1160   -2.2360 o         1 TLL     -0.611100
      9 N           1.0650   -0.5010   -3.4940 n4        1 TLL     -0.690800
     10 C           0.9930   -1.8680   -4.1480 c         1 TLL      0.620700
     11 O           1.4490   -2.8040   -3.5020 o         1 TLL     -0.472100
     12 C11         0.3300   -1.8850   -5.4490 ca        1 TLL     -0.240600
     13 C16         0.6200   -0.9380   -6.4430 ca        1 TLL     -0.030000
     14 C15        -0.1120   -0.9320   -7.6200 ca        1 TLL     -0.193000
     15 C14        -1.1560   -1.8680   -7.8370 ca        1 TLL      0.211600
     16 C13        -1.3660   -2.8760   -6.8610 ca        1 TLL     -0.193000
     17 C12        -0.6300   -2.8810   -5.6880 ca        1 TLL     -0.030000
     18 N10        -1.8820   -1.8370   -9.0360 nh        1 TLL     -0.712600
     19 C9         -3.2840   -2.1540   -9.0480 c3        1 TLL      0.193800
     20 C6         -4.2480   -0.9850   -8.6940 c3        1 TLL      0.112500
     21 N5         -3.9910   -0.4440   -7.3630 nh        1 TLL     -0.580400
     22 C7         -5.7090   -1.4720   -8.8770 c3        1 TLL      0.148800
     23 N8         -6.1810   -2.3540   -7.8350 nh        1 TLL     -0.704000
     24 C8A        -5.6320   -2.0970   -6.5460 cc        1 TLL      0.244000
     25 C4A        -4.6540   -1.1270   -6.3140 cd        1 TLL     -0.092200
     26 N1         -6.1470   -2.8530   -5.4780 na        1 TLL     -0.723000
     27 C2         -5.6570   -2.6260   -4.1770 cc        1 TLL      0.845100
     28 NA2        -6.0990   -3.5200   -3.1700 nh        1 TLL     -0.888800
     29 N3         -4.7720   -1.6710   -3.8850 nd        1 TLL     -0.752100
     30 C4         -4.2300   -0.8750   -4.9040 c         1 TLL      0.730700
     31 O4         -3.4130    0.0110   -4.5850 o         1 TLL     -0.589100
     32 N2          4.0410    1.7770   -3.0820 n         1 TLL     -0.510900
     33 C3          3.9780    2.3050   -4.4390 c3        1 TLL     -0.053300
     34 C5          3.3310    1.2810   -5.4140 c         1 TLL      0.892600
     35 O6          3.1870    0.0680   -5.0210 o         1 TLL     -0.832800
     36 O7          2.9220    1.6700   -6.5300 o         1 TLL     -0.832800
     37 C8          5.3510    2.7160   -4.9720 c3        1 TLL     -0.065400
     38 C10         5.8160    4.0440   -4.4150 c3        1 TLL     -0.171400
     39 C17         6.1790    3.9770   -2.9620 c         1 TLL      0.637100
     40 O18         5.2600    4.3220   -2.0120 oh        1 TLL     -0.591100
     41 O19         7.2800    3.6810   -2.4920 o         1 TLL     -0.514000
     42 C1         -4.0710    1.0030   -7.3050 c3        1 TLL      0.156100
     43 HA          1.1210   -1.4500   -1.5930 hx        1 TLL      0.135700
     44 HB1         0.7080    0.5530   -0.2170 hc        1 TLL      0.096700
     45 HB2         0.5620    1.6280   -1.6680 hc        1 TLL      0.096700
     46 HG2         2.8670    1.3320   -0.2100 hc        1 TLL      0.082700
     47 HG1         3.1380   -0.0140   -1.3850 hc        1 TLL      0.082700
     48 HN          2.0620   -0.1580   -3.6000 hn        1 TLL      0.494800
     49 H16         1.4550   -0.2090   -6.3140 ha        1 TLL      0.182000
     50 H15         0.1300   -0.1760   -8.3850 ha        1 TLL      0.146000
     51 H13        -2.1120   -3.6670   -7.0210 ha        1 TLL      0.146000
     52 H12        -0.8040   -3.6650   -4.9330 ha        1 TLL      0.182000
     53 H10        -1.6690   -1.0310   -9.5920 hn        1 TLL      0.402800
     54 H92        -3.5330   -2.4730  -10.1020 h1        1 TLL      0.057700
     55 H91        -3.4840   -3.0220   -8.3630 h1        1 TLL      0.057700
     56 H6         -4.0790   -0.1650   -9.4540 h1        1 TLL      0.073700
     57 H72        -6.3840   -0.5670   -8.8760 h1        1 TLL      0.070200
     58 H71        -5.8120   -1.9850   -9.8710 h1        1 TLL      0.070200
     59 HN8        -6.1110   -3.3220   -8.0890 hn        1 TLL      0.388800
     60 HN1        -6.8110   -3.5710   -5.6600 hn        1 TLL      0.457800
     61 HA22       -5.7480   -3.3030   -2.2590 hn        1 TLL      0.421800
     62 HA21       -2.5060    0.0070   -2.7130 ho        1 TLL      0.501000
     63 HN2         4.3770    4.3890   -2.4090 ho        1 TLL      0.442000
     64 H3          3.3090    3.2180   -4.4340 h1        1 TLL      0.085700
     65 H81         5.2520    2.8090   -6.0880 hc        1 TLL      0.075200
     66 H8          6.1160    1.9230   -4.7620 hc        1 TLL      0.075200
     67 H102        5.0230    4.8240   -4.5670 hc        1 TLL      0.070700
     68 H101        6.7320    4.3720   -4.9780 hc        1 TLL      0.070700
     69 H11        -3.8120    1.3490   -6.2690 h1        1 TLL      0.051700
     70 H14        -5.0880    1.3920   -7.5800 h1        1 TLL      0.051700
     71 H1         -3.3150    1.4230   -8.0200 h1        1 TLL      0.051700
     72 H2          0.4630    0.1490   -4.0180 hn        1 TLL      0.494800
     73 HA23       -7.0750   -3.7180   -3.1820 hn        1 TLL      0.421800
     74 H22         4.4280    0.8540   -3.0510 hn        1 TLL      0.305500
@<TRIPOS>BOND
     1    1    2 1   
     2    1   62 1   
     3    2    3 2   
     4    2    4 1   
     5    4    5 1   
     6    4    9 1   
     7    4   43 1   
     8    5    6 1   
     9    5   44 1   
    10    5   45 1   
    11    6    7 1   
    12    6   46 1   
    13    6   47 1   
    14    7    8 2   
    15    7   32 1   
    16    9   10 1   
    17    9   48 1   
    18    9   72 1   
    19   10   11 2   
    20   10   12 1   
    21   12   13 ar  
    22   12   17 ar  
    23   13   14 ar  
    24   13   49 1   
    25   14   15 ar  
    26   14   50 1   
    27   15   16 ar  
    28   15   18 1   
    29   16   17 ar  
    30   16   51 1   
    31   17   52 1   
    32   18   19 1   
    33   18   53 1   
    34   19   20 1   
    35   19   54 1   
    36   19   55 1   
    37   20   21 1   
    38   20   22 1   
    39   20   56 1   
    40   21   25 1   
    41   21   42 1   
    42   22   23 1   
    43   22   57 1   
    44   22   58 1   
    45   23   24 1   
    46   23   59 1   
    47   24   25 2   
    48   24   26 1   
    49   25   30 1   
    50   26   27 1   
    51   26   60 1   
    52   27   28 1   
    53   27   29 2   
    54   28   61 1   
    55   28   73 1   
    56   29   30 1   
    57   30   31 2   
    58   32   33 1   
    59   32   74 1   
    60   33   34 1   
    61   33   37 1   
    62   33   64 1   
    63   34   35 1   
    64   34   36 1   
    65   37   38 1   
    66   37   65 1   
    67   37   66 1   
    68   38   39 1   
    69   38   67 1   
    70   38   68 1   
    71   39   40 1   
    72   39   41 2   
    73   40   63 1   
    74   42   69 1   
    75   42   70 1   
    76   42   71 1   
@<TRIPOS>SUBSTRUCTURE
     1 TLL         1 TEMP              0 ****  ****    0 ROOT
