@<TRIPOS>MOLECULE
TLM
   28    28     1     0     0
SMALL
bcc


@<TRIPOS>ATOM
      1 S1          0.2040   -0.1660   -0.0770 ss        1 TLM     -0.274700
      2 C1          1.9410   -0.2180    0.1160 c         1 TLM      0.614900
      3 C2          2.2530   -0.1030    1.5500 ce        1 TLM     -0.317400
      4 C3          1.1620    0.0060    2.3520 c2        1 TLM      0.127900
      5 C4         -0.2000   -0.0210    1.7010 c3        1 TLM      0.133500
      6 C5         -0.9530    1.2270    1.9770 c2        1 TLM     -0.166200
      7 C6         -2.1170    1.6160    1.4200 ce        1 TLM     -0.043200
      8 C7         -2.7270    2.8680    1.8640 ce        1 TLM     -0.138000
      9 C8         -3.9740    3.2490    1.5830 c2        1 TLM     -0.200000
     10 O1          2.7610   -0.3300   -0.7920 o         1 TLM     -0.497100
     11 C9          3.6510   -0.1090    2.0090 c3        1 TLM     -0.039900
     12 O2          1.1550    0.1340    3.7070 oh        1 TLM     -0.468100
     13 C10        -0.9650   -1.2540    2.1430 c3        1 TLM     -0.080100
     14 C11        -2.8380    0.8590    0.3680 c3        1 TLM     -0.070900
     15 H51        -0.4840    1.8640    2.7500 ha        1 TLM      0.141000
     16 H71        -2.0770    3.5130    2.4830 ha        1 TLM      0.124000
     17 H81        -4.6660    2.6490    0.9780 ha        1 TLM      0.115500
     18 H82        -4.3830    4.2000    1.9490 ha        1 TLM      0.115500
     19 H91         3.8980    0.8470    2.5370 hc        1 TLM      0.051367
     20 H92         4.3450   -0.2200    1.1380 hc        1 TLM      0.051367
     21 H93         3.8330   -0.9590    2.7150 hc        1 TLM      0.051367
     22 HO2         2.0770    0.1310    4.0140 ho        1 TLM      0.434000
     23 H101       -1.9780   -1.2680    1.6720 hc        1 TLM      0.058367
     24 H102       -1.0840   -1.2370    3.2550 hc        1 TLM      0.058367
     25 H103       -0.4160   -2.1820    1.8530 hc        1 TLM      0.058367
     26 H111       -3.7390    0.3600    0.8070 hc        1 TLM      0.052367
     27 H112       -2.1920    0.0740   -0.1010 hc        1 TLM      0.052367
     28 H113       -3.1790    1.5520   -0.4430 hc        1 TLM      0.052367
@<TRIPOS>BOND
     1    1    2 1   
     2    1    5 1   
     3    2    3 1   
     4    2   10 2   
     5    3    4 2   
     6    3   11 1   
     7    4    5 1   
     8    4   12 1   
     9    5    6 1   
    10    5   13 1   
    11    6    7 2   
    12    6   15 1   
    13    7    8 1   
    14    7   14 1   
    15    8    9 2   
    16    8   16 1   
    17    9   17 1   
    18    9   18 1   
    19   11   19 1   
    20   11   20 1   
    21   11   21 1   
    22   12   22 1   
    23   13   23 1   
    24   13   24 1   
    25   13   25 1   
    26   14   26 1   
    27   14   27 1   
    28   14   28 1   
@<TRIPOS>SUBSTRUCTURE
     1 TLM         1 TEMP              0 ****  ****    0 ROOT
