@<TRIPOS>MOLECULE
molecule
   28    28     1     0     0
SMALL
bcc


@<TRIPOS>ATOM
      1 S1           0.0000     0.0000     0.0000 ss         1 TLM      -0.318700
      2 C1           1.7870     0.0000     0.0000 c          1 TLM       0.635900
      3 C2           2.1190     0.0000     1.3790 ce         1 TLM      -0.263400
      4 C3           1.1840     0.0000     2.3080 c2         1 TLM       0.124900
      5 C4          -0.2520     0.0000     1.8180 c3         1 TLM       0.102500
      6 C5          -0.9790     1.2420     2.2650 c2         1 TLM      -0.175200
      7 C6          -2.0740     1.6370     1.6260 ce         1 TLM      -0.051200
      8 C7          -2.6940     2.9300     1.9570 ce         1 TLM      -0.142000
      9 C8          -3.7890     3.3250     1.3190 c2         1 TLM      -0.196000
     10 O1           2.5400     0.0000    -0.9560 o          1 TLM      -0.473100
     11 C9           3.5690    -0.0000     1.7890 c3         1 TLM      -0.038900
     12 O2           1.4870     0.0010     3.6230 oh         1 TLM      -0.499100
     13 C10         -0.9900    -1.2600     2.2720 c3         1 TLM      -0.067100
     14 C11         -2.6830     0.7610     0.5630 c3         1 TLM      -0.064900
     15 H51         -0.5450     1.8730     3.0310 ha         1 TLM       0.133000
     16 H71         -2.2560     3.5590     2.7220 ha         1 TLM       0.128000
     17 H81         -4.2450     4.2770     1.5630 ha         1 TLM       0.118000
     18 H82         -4.2270     2.6950     0.5540 ha         1 TLM       0.118000
     19 H91          4.1880    -0.2220     0.9280 hc         1 TLM       0.053700
     20 H92          3.8330     0.9740     2.1830 hc         1 TLM       0.053700
     21 H93          3.7280    -0.7530     2.5510 hc         1 TLM       0.053700
     22 HO2          1.6120     0.8880     3.9160 ho         1 TLM       0.433000
     23 H101        -0.3050    -1.9070     2.8060 hc         1 TLM       0.056700
     24 H102        -1.3790    -1.7820     1.4060 hc         1 TLM       0.056700
     25 H103        -1.8090    -0.9840     2.9250 hc         1 TLM       0.056700
     26 H111        -2.6580     1.2780    -0.3890 hc         1 TLM       0.055033
     27 H112        -2.1190    -0.1610     0.4880 hc         1 TLM       0.055033
     28 H113        -3.7100     0.5360     0.8250 hc         1 TLM       0.055033
@<TRIPOS>BOND
     1     1     2 1
     2     1     5 1
     3     2     3 1
     4     2    10 2
     5     3     4 2
     6     3    11 1
     7     4     5 1
     8     4    12 1
     9     5     6 1
    10     5    13 1
    11     6     7 2
    12     6    15 1
    13     7     8 1
    14     7    14 1
    15     8     9 2
    16     8    16 1
    17     9    17 1
    18     9    18 1
    19    11    19 1
    20    11    20 1
    21    11    21 1
    22    12    22 1
    23    13    23 1
    24    13    24 1
    25    13    25 1
    26    14    26 1
    27    14    27 1
    28    14    28 1
@<TRIPOS>SUBSTRUCTURE
     1 TLM         1 TEMP              0 ****  ****    0 ROOT
