@<TRIPOS>MOLECULE
molecule
   49    51     1     0     0
SMALL
bcc


@<TRIPOS>ATOM
      1 N1           0.0000     0.0000     0.0000 n          1 TLO      -0.353000
      2 C2           1.3450     0.0000     0.0000 c          1 TLO       0.803500
      3 O2           1.9440     0.0010    -1.0580 o          1 TLO      -0.605500
      4 N3           2.0370     0.0000     1.1540 ns         1 TLO      -0.562500
      5 C4           1.3880    -0.0000     2.3360 c          1 TLO       0.717700
      6 O4           2.0130     0.0010     3.3810 o          1 TLO      -0.653500
      7 C5          -0.0280    -0.0010     2.3500 cc         1 TLO      -0.308400
      8 C6          -0.6970    -0.0010     1.1770 cd         1 TLO       0.056600
      9 PA           0.4620    -3.9690    -5.4120 p5         1 TLO       1.440800
     10 PB           0.3910    -6.9290    -5.2810 p5         1 TLO       1.401800
     11 CG          -0.5430    -9.2360    -5.4320 ca         1 TLO       0.218100
     12 CZ           0.0780   -11.8630    -6.0370 ca         1 TLO      -0.187000
     13 C1'         -0.7260     0.0060    -1.2730 c3         1 TLO       0.308500
     14 O1A          0.1180    -3.6370    -6.9490 o          1 TLO      -0.836500
     15 O1B          1.5200    -7.3000    -4.1950 o          1 TLO      -0.818500
     16 C2'         -0.3940     1.2850    -2.0750 c3         1 TLO      -0.152400
     17 O2A          1.9300    -3.9580    -5.2220 o          1 TLO      -0.836500
     18 O2B          0.9620    -7.0390    -6.6420 o          1 TLO      -0.818500
     19 C3'         -0.3460     0.8040    -3.5430 c3         1 TLO       0.112100
     20 O3'         -1.3410     1.4740    -4.3200 oh         1 TLO      -0.606800
     21 O3A         -0.1180    -5.4220    -5.0330 os         1 TLO      -0.716800
     22 O3B         -0.8480    -7.9460    -5.1350 os         1 TLO      -0.479500
     23 C4'         -0.6570    -0.7060    -3.4540 c3         1 TLO       0.129100
     24 O4'         -0.2810    -1.0820    -2.1120 os         1 TLO      -0.357600
     25 C5'          0.1760    -1.4830    -4.4770 c3         1 TLO       0.241400
     26 O5'         -0.2090    -2.8580    -4.4590 os         1 TLO      -0.601200
     27 C5M         -0.7780    -0.0020     3.6570 c3         1 TLO      -0.005900
     28 CD1         -0.0920   -10.0900    -4.4360 ca         1 TLO      -0.143000
     29 CD2         -0.6870    -9.7030    -6.7310 ca         1 TLO      -0.143000
     30 CE1          0.2170   -11.4020    -4.7400 ca         1 TLO      -0.132500
     31 CE2         -0.3760   -11.0160    -7.0300 ca         1 TLO      -0.132500
     32 HN3          3.0380     0.0000     1.1360 hn         1 TLO       0.360500
     33 H6          -1.7800    -0.0010     1.1680 h4         1 TLO       0.158000
     34 HZ           0.3210   -12.8920    -6.2740 ha         1 TLO       0.091000
     35 H1'         -1.7940    -0.0640    -1.1040 h2         1 TLO       0.061700
     36 H2'          0.5690     1.6800    -1.7750 hc         1 TLO       0.059200
     37 H2'A        -1.1730     2.0260    -1.9450 hc         1 TLO       0.059200
     38 H3'          0.6410     0.9630    -3.9600 h1         1 TLO       0.065700
     39 HO3'        -0.9320     2.1370    -4.8510 ho         1 TLO       0.396000
     40 H4'         -1.7140    -0.8810    -3.6100 h1         1 TLO       0.067700
     41 H5'          1.2260    -1.3980    -4.2260 h1         1 TLO       0.043200
     42 H5'A         0.0070    -1.0730    -5.4660 h1         1 TLO       0.043200
     43 H5M         -0.5430    -0.9050     4.2080 hc         1 TLO       0.038367
     44 H5MA        -1.8430     0.0360     3.4630 hc         1 TLO       0.038367
     45 H5MB        -0.4870     0.8630     4.2410 hc         1 TLO       0.038367
     46 HD1          0.0170    -9.7290    -3.4200 ha         1 TLO       0.149000
     47 HD2         -1.0420    -9.0390    -7.5090 ha         1 TLO       0.149000
     48 HE1          0.5710   -12.0690    -3.9630 ha         1 TLO       0.100500
     49 HE2         -0.4860   -11.3800    -8.0440 ha         1 TLO       0.100500
@<TRIPOS>BOND
     1    13     1 1
     2     1     8 1
     3     1     2 1
     4     3     2 2
     5     2     4 1
     6     4     5 1
     7     4    32 1
     8     7     5 1
     9     5     6 2
    10     8     7 2
    11     7    27 1
    12     8    33 1
    13    21     9 1
    14    17     9 1
    15     9    26 1
    16     9    14 1
    17    22    10 1
    18    18    10 1
    19    10    15 1
    20    10    21 1
    21    29    11 ar
    22    11    22 1
    23    11    28 ar
    24    31    12 ar
    25    12    30 ar
    26    12    34 1
    27    16    13 1
    28    13    24 1
    29    13    35 1
    30    19    16 1
    31    16    36 1
    32    16    37 1
    33    20    19 1
    34    19    23 1
    35    19    38 1
    36    20    39 1
    37    25    23 1
    38    23    24 1
    39    23    40 1
    40    26    25 1
    41    25    41 1
    42    25    42 1
    43    27    43 1
    44    27    44 1
    45    27    45 1
    46    30    28 ar
    47    28    46 1
    48    31    29 ar
    49    29    47 1
    50    30    48 1
    51    31    49 1
@<TRIPOS>SUBSTRUCTURE
     1 TLO         1 TEMP              0 ****  ****    0 ROOT
