@<TRIPOS>MOLECULE
molecule
   39    39     1     0     0
SMALL
bcc


@<TRIPOS>ATOM
      1 N1           0.0000     0.0000     0.0000 n7         1 TLP      -0.785200
      2 C1           1.4690     0.0000     0.0000 c3         1 TLP       0.051500
      3 C2           1.9800     0.0000     1.4420 c3         1 TLP       0.167100
      4 O1           3.4050     0.0990     1.4420 oh         1 TLP      -0.576800
      5 C3           1.5580    -1.2990     2.1320 c3         1 TLP      -0.107100
      6 C4           1.9720     1.2290    -0.7120 c          1 TLP       0.865600
      7 O2           3.2910     1.4420    -0.8340 o          1 TLP      -0.863300
      8 O3           1.1870     2.0250    -1.1710 o          1 TLP      -0.863300
      9 N2          -4.6530    -0.9570    -1.3270 nb         1 TLP      -0.727000
     10 C5          -4.0910     0.1360    -1.8050 ca         1 TLP       0.321600
     11 C6          -4.9590     1.2370    -2.3610 c3         1 TLP      -0.122400
     12 C7          -2.7130     0.2840    -1.8020 ca         1 TLP      -0.026200
     13 O4          -2.1390     1.4120    -2.2970 oh         1 TLP      -0.500100
     14 C8          -1.9240    -0.7400    -1.2860 ca         1 TLP      -0.071300
     15 C9          -0.4220    -0.6210    -1.2630 c3         1 TLP       0.201100
     16 C10         -2.5550    -1.8730    -0.7980 ca         1 TLP      -0.130600
     17 C11         -3.9350    -1.9460    -0.8300 ca         1 TLP       0.413200
     18 C12         -1.7450    -3.0100    -0.2280 c3         1 TLP       0.187700
     19 O5          -2.6240    -4.0460     0.2140 os         1 TLP      -0.555200
     20 P1          -1.6980    -5.2210     0.8070 p5         1 TLP       1.158900
     21 O6          -0.9250    -4.6870     2.1150 o          1 TLP      -0.913167
     22 O7          -2.6180    -6.4810     1.2060 o          1 TLP      -0.913167
     23 O8          -0.7110    -5.6360    -0.2150 o          1 TLP      -0.913167
     24 H1          -0.3340     0.9430     0.0360 hn         1 TLP       0.363800
     25 H2           1.8300    -0.8850    -0.5100 h1         1 TLP       0.072700
     26 H3           1.5590     0.8450     1.9740 h1         1 TLP       0.003700
     27 H4           3.6870     0.5760     2.2060 ho         1 TLP       0.358000
     28 H5           0.6100    -1.1500     2.6350 hc         1 TLP       0.042367
     29 H6           2.3110    -1.5830     2.8580 hc         1 TLP       0.042367
     30 H7           1.4550    -2.0840     1.3930 hc         1 TLP       0.042367
     31 H9          -6.0000     1.0020    -2.1790 hc         1 TLP       0.025033
     32 H10         -4.7090     2.1730    -1.8760 hc         1 TLP       0.025033
     33 H11         -4.7900     1.3260    -3.4270 hc         1 TLP       0.025033
     34 H12         -2.2010     1.4100    -3.2370 ho         1 TLP       0.389000
     35 H13          0.0190    -1.6070    -1.3450 h1         1 TLP       0.050700
     36 H14         -0.0960    -0.0090    -2.0940 h1         1 TLP       0.050700
     37 H15         -4.4330    -2.8290    -0.4480 h4         1 TLP       0.062100
     38 H16         -1.1590    -2.6520     0.6090 h1         1 TLP       0.075700
     39 H17         -1.0830    -3.4000    -0.9920 h1         1 TLP       0.075700
@<TRIPOS>BOND
     1     1     2 1
     2     1    15 1
     3     1    24 1
     4     2     3 1
     5     2     6 1
     6     2    25 1
     7     3     4 1
     8     3     5 1
     9     3    26 1
    10     4    27 1
    11     5    28 1
    12     5    29 1
    13     5    30 1
    14     6     7 1
    15     6     8 1
    16     9    10 ar
    17     9    17 ar
    18    10    11 1
    19    10    12 ar
    20    11    31 1
    21    11    32 1
    22    11    33 1
    23    12    13 1
    24    12    14 ar
    25    13    34 1
    26    14    15 1
    27    14    16 ar
    28    15    35 1
    29    15    36 1
    30    16    17 ar
    31    16    18 1
    32    17    37 1
    33    18    19 1
    34    18    38 1
    35    18    39 1
    36    19    20 1
    37    20    21 1
    38    20    22 1
    39    20    23 1
@<TRIPOS>SUBSTRUCTURE
     1 TLP         1 TEMP              0 ****  ****    0 ROOT
