@<TRIPOS>MOLECULE
molecule
   68    73     1     0     0
SMALL
bcc


@<TRIPOS>ATOM
      1 C1           0.0000     0.0000     0.0000 ca         1 TLS      -0.090200
      2 N2           1.3810     0.0000     0.0000 na         1 TLS      -0.129300
      3 C3          -0.3880    -0.0000     1.3520 ca         1 TLS       0.111400
      4 C4          -0.9620    -0.0050    -0.9960 ca         1 TLS      -0.060000
      5 C5           1.7850     0.0000     1.2980 cc         1 TLS       0.450800
      6 C6           2.2500    -0.0010    -1.1800 c3         1 TLS       0.100600
      7 N7           0.7510     0.0000     2.0890 nd         1 TLS      -0.618100
      8 C8          -1.7480     0.0010     1.6830 ca         1 TLS      -0.031300
      9 C9          -2.3110    -0.0040    -0.6490 ca         1 TLS      -0.117900
     10 C10          3.2210    -0.0000     1.7560 c3         1 TLS      -0.086700
     11 C11          2.5110    -1.4210    -1.6100 ca         1 TLS      -0.146300
     12 C12         -2.6910     0.0010     0.6990 ca         1 TLS      -0.154000
     13 C13         -2.1700     0.0010     3.1300 c3         1 TLS      -0.039800
     14 C14         -3.3440    -0.0090    -1.7060 cc         1 TLS       0.506400
     15 C15          3.6650     1.4360     2.0450 c3         1 TLS      -0.084400
     16 C16          1.6810    -2.0240    -2.5380 ca         1 TLS      -0.125000
     17 C17          3.5850    -2.1150    -1.0800 ca         1 TLS      -0.125000
     18 N18         -4.6320    -0.4450    -1.5460 na         1 TLS      -0.152300
     19 N19         -3.1670     0.4070    -2.9360 nd         1 TLS      -0.611100
     20 C20          5.1550     1.4500     2.3890 c3         1 TLS      -0.093100
     21 C21          1.9150    -3.3240    -2.9360 ca         1 TLS      -0.077000
     22 C22          3.8290    -3.4160    -1.4710 ca         1 TLS      -0.077000
     23 C23         -5.2720    -0.2850    -2.7600 ca         1 TLS      -0.093200
     24 C24         -5.2220    -0.9810    -0.3160 c3         1 TLS       0.038600
     25 C25         -4.3180     0.2610    -3.6370 ca         1 TLS       0.100400
     26 C26          2.9920    -4.0310    -2.4020 cp         1 TLS       0.033000
     27 C27         -6.5580    -0.5430    -3.2120 ca         1 TLS      -0.125000
     28 C28         -4.6800     0.5400    -4.9580 ca         1 TLS      -0.075000
     29 C29          3.2490    -5.4270    -2.8260 cp         1 TLS      -0.040000
     30 C30         -6.8910    -0.2630    -4.5210 ca         1 TLS      -0.127000
     31 C31         -5.9500     0.2760    -5.3860 ca         1 TLS      -0.152000
     32 C32          3.2580    -6.4640    -1.8760 ca         1 TLS      -0.086600
     33 C33          3.4760    -5.7210    -4.1670 ca         1 TLS      -0.142000
     34 C34          3.5020    -7.7750    -2.2900 ca         1 TLS      -0.094000
     35 C35          3.0140    -6.1690    -0.4520 c          1 TLS       0.875200
     36 C36          3.7140    -7.0230    -4.5580 ca         1 TLS      -0.156000
     37 C37          3.7300    -8.0450    -3.6230 ca         1 TLS      -0.157000
     38 O38          3.1440    -7.1430     0.4710 o          1 TLS      -0.826800
     39 O39          2.6940    -5.0470    -0.1100 o          1 TLS      -0.826800
     40 H4          -0.6670    -0.0090    -2.0380 ha         1 TLS       0.151000
     41 H6           1.7660     0.5370    -1.9860 h1         1 TLS       0.057200
     42 H6A          3.1890     0.4810    -0.9370 h1         1 TLS       0.057200
     43 H10          3.8470    -0.4230     0.9800 hc         1 TLS       0.074700
     44 H10A         3.3120    -0.5950     2.6570 hc         1 TLS       0.074700
     45 H12         -3.7420     0.0020     0.9620 ha         1 TLS       0.127000
     46 H13         -1.5950     0.7410     3.6740 hc         1 TLS       0.043033
     47 H13A        -3.2240     0.2400     3.1990 hc         1 TLS       0.043033
     48 H13B        -1.9940    -0.9790     3.5580 hc         1 TLS       0.043033
     49 H15          3.0980     1.8280     2.8810 hc         1 TLS       0.045700
     50 H15A         3.4900     2.0510     1.1700 hc         1 TLS       0.045700
     51 H16          0.8450    -1.4740    -2.9530 ha         1 TLS       0.113000
     52 H17          4.2340    -1.6370    -0.3570 ha         1 TLS       0.113000
     53 H20          5.7360     1.3210     1.4830 hc         1 TLS       0.033033
     54 H20A         5.4100     2.3960     2.8490 hc         1 TLS       0.033033
     55 H20B         5.3740     0.6420     3.0770 hc         1 TLS       0.033033
     56 H21          1.2630    -3.7950    -3.6620 ha         1 TLS       0.136000
     57 H22          4.6680    -3.9590    -1.0540 ha         1 TLS       0.136000
     58 H24         -6.1380    -1.5080    -0.5540 h1         1 TLS       0.054033
     59 H24A        -5.4410    -0.1670     0.3640 h1         1 TLS       0.054033
     60 H24B        -4.5240    -1.6640     0.1520 h1         1 TLS       0.054033
     61 H27         -7.2970    -0.9640    -2.5410 ha         1 TLS       0.121000
     62 H28         -3.9540     0.9610    -5.6430 ha         1 TLS       0.137000
     63 H30         -7.8940    -0.4670    -4.8760 ha         1 TLS       0.124000
     64 H31         -6.2260     0.4900    -6.4120 ha         1 TLS       0.124000
     65 H33          3.4660    -4.9280    -4.9050 ha         1 TLS       0.112000
     66 H34          3.5130    -8.5800    -1.5640 ha         1 TLS       0.156000
     67 H36          3.8930    -7.2470    -5.6030 ha         1 TLS       0.103000
     68 H37          3.9180    -9.0630    -3.9420 ha         1 TLS       0.106000
@<TRIPOS>BOND
     1     1     2 1
     2     1     3 ar
     3     1     4 ar
     4     2     5 1
     5     2     6 1
     6     3     7 1
     7     3     8 ar
     8     4     9 ar
     9     5     7 2
    10     5    10 1
    11     6    11 1
    12     8    12 ar
    13     8    13 1
    14     9    12 ar
    15     9    14 1
    16    10    15 1
    17    11    16 ar
    18    11    17 ar
    19    14    18 1
    20    14    19 2
    21    15    20 1
    22    16    21 ar
    23    17    22 ar
    24    18    23 1
    25    18    24 1
    26    19    25 1
    27    21    26 ar
    28    22    26 ar
    29    23    25 ar
    30    23    27 ar
    31    25    28 ar
    32    26    29 1
    33    27    30 ar
    34    28    31 ar
    35    29    32 ar
    36    29    33 ar
    37    30    31 ar
    38    32    34 ar
    39    32    35 1
    40    33    36 ar
    41    34    37 ar
    42    35    38 1
    43    35    39 1
    44    36    37 ar
    45     4    40 1
    46     6    41 1
    47     6    42 1
    48    10    43 1
    49    10    44 1
    50    12    45 1
    51    13    46 1
    52    13    47 1
    53    13    48 1
    54    15    49 1
    55    15    50 1
    56    16    51 1
    57    17    52 1
    58    20    53 1
    59    20    54 1
    60    20    55 1
    61    21    56 1
    62    22    57 1
    63    24    58 1
    64    24    59 1
    65    24    60 1
    66    27    61 1
    67    28    62 1
    68    30    63 1
    69    31    64 1
    70    33    65 1
    71    34    66 1
    72    36    67 1
    73    37    68 1
@<TRIPOS>SUBSTRUCTURE
     1 TLS         1 TEMP              0 ****  ****    0 ROOT
