@<TRIPOS>MOLECULE
TLS
   68    73     1     0     0
SMALL
bcc


@<TRIPOS>ATOM
      1 C1         -0.4510   -0.0190   -0.1570 ca        1 TLS     -0.084200
      2 N2          0.9260   -0.2800   -0.1810 na        1 TLS     -0.152300
      3 C3         -0.8250    0.0110    1.2480 ca        1 TLS      0.086400
      4 C4         -1.3910    0.2040   -1.1670 ca        1 TLS     -0.081000
      5 C5          1.3290   -0.4280    1.1710 cc        1 TLS      0.458800
      6 C6          1.7380   -0.4420   -1.3560 c3        1 TLS      0.099600
      7 N7          0.3060   -0.2440    2.0390 nd        1 TLS     -0.591100
      8 C8         -2.1610    0.2740    1.6070 ca        1 TLS     -0.029300
      9 C9         -2.7060    0.4450   -0.7730 ca        1 TLS     -0.124900
     10 C10         2.7390   -0.7410    1.5600 c3        1 TLS     -0.111700
     11 C11         2.2800   -1.8210   -1.5860 ca        1 TLS     -0.152300
     12 C12        -3.0790    0.4830    0.5870 ca        1 TLS     -0.147000
     13 C13        -2.5550    0.3220    3.0320 c3        1 TLS     -0.044800
     14 C14        -3.7200    0.6800   -1.8080 cc        1 TLS      0.490400
     15 C15         3.5520    0.5280    1.7250 c3        1 TLS     -0.074400
     16 C16         1.4270   -2.9220   -1.7040 ca        1 TLS     -0.125000
     17 C17         3.6610   -2.0060   -1.7090 ca        1 TLS     -0.125000
     18 N18        -4.9710    0.0010   -1.8120 na        1 TLS     -0.165300
     19 N19        -3.5930    1.5370   -2.8460 nd        1 TLS     -0.567100
     20 C20         4.9700    0.2050    2.1230 c3        1 TLS     -0.098100
     21 C21         1.9520   -4.1910   -1.9370 ca        1 TLS     -0.117500
     22 C22         4.1880   -3.2720   -1.9500 ca        1 TLS     -0.117500
     23 C23        -5.6670    0.4660   -2.9340 ca        1 TLS     -0.074200
     24 C24        -5.4160   -1.0040   -0.9090 c3        1 TLS      0.030600
     25 C25        -4.7910    1.4330   -3.5760 ca        1 TLS      0.070400
     26 C26         3.3370   -4.3820   -2.0610 cp        1 TLS      0.014000
     27 C27        -6.9290    0.1680   -3.4610 ca        1 TLS     -0.134000
     28 C28        -5.2210    2.0820   -4.7410 ca        1 TLS     -0.073000
     29 C29         3.8710   -5.7200   -2.3210 cp        1 TLS     -0.052000
     30 C30        -7.3140    0.8330   -4.6160 ca        1 TLS     -0.122000
     31 C31        -6.4770    1.7720   -5.2430 ca        1 TLS     -0.159000
     32 C32         5.0030   -6.2240   -1.6610 ca        1 TLS     -0.072600
     33 C33         3.2100   -6.5220   -3.2690 ca        1 TLS     -0.131000
     34 C34         5.4450   -7.5210   -1.9620 ca        1 TLS     -0.122000
     35 C35         5.7960   -5.4470   -0.6140 c         1 TLS      0.908200
     36 C36         3.6650   -7.8030   -3.5620 ca        1 TLS     -0.170000
     37 C37         4.7880   -8.3060   -2.9020 ca        1 TLS     -0.139000
     38 O38         5.5190   -5.6410    0.6000 o         1 TLS     -0.821300
     39 O39         6.7100   -4.6760   -1.0260 o         1 TLS     -0.821300
     40 H4         -1.1100    0.1920   -2.2300 ha        1 TLS      0.153000
     41 H6          1.1110   -0.1450   -2.2480 h1        1 TLS      0.059700
     42 H6A         2.5990    0.2870   -1.2730 h1        1 TLS      0.059700
     43 H10         2.7320   -1.3160    2.5260 hc        1 TLS      0.089200
     44 H10A        3.2100   -1.4020    0.7790 hc        1 TLS      0.089200
     45 H12        -4.1280    0.7000    0.8440 ha        1 TLS      0.129000
     46 H13        -2.3200   -0.6530    3.5290 hc        1 TLS      0.046033
     47 H13A       -1.9810    1.1240    3.5620 hc        1 TLS      0.046033
     48 H13B       -3.6470    0.5290    3.1460 hc        1 TLS      0.046033
     49 H15         3.0760    1.1820    2.5020 hc        1 TLS      0.038200
     50 H15A        3.5510    1.1030    0.7610 hc        1 TLS      0.038200
     51 H16         0.3410   -2.7890   -1.6020 ha        1 TLS      0.122500
     52 H17         4.3440   -1.1490   -1.6080 ha        1 TLS      0.122500
     53 H20         5.5660    1.1440    2.2200 hc        1 TLS      0.040033
     54 H20A        5.4570   -0.4480    1.3580 hc        1 TLS      0.040033
     55 H20B        4.9910   -0.3310    3.1020 hc        1 TLS      0.040033
     56 H21         1.2750   -5.0550   -2.0070 ha        1 TLS      0.167000
     57 H22         5.2850   -3.4200   -2.0120 ha        1 TLS      0.167000
     58 H24        -4.5340   -1.4480   -0.3720 h1        1 TLS      0.053033
     59 H24A       -5.9550   -1.8120   -1.4740 h1        1 TLS      0.053033
     60 H24B       -6.1200   -0.5630   -0.1510 h1        1 TLS      0.053033
     61 H27        -7.5870   -0.5650   -2.9760 ha        1 TLS      0.131000
     62 H28        -4.5720    2.8160   -5.2380 ha        1 TLS      0.144000
     63 H30        -8.3000    0.6210   -5.0560 ha        1 TLS      0.125000
     64 H31        -6.8310    2.2700   -6.1570 ha        1 TLS      0.126000
     65 H33         2.3270   -6.1250   -3.7910 ha        1 TLS      0.111000
     66 H34         6.3290   -7.9090   -1.4330 ha        1 TLS      0.136000
     67 H36         3.1420   -8.4150   -4.3080 ha        1 TLS      0.106000
     68 H37         5.1490   -9.3190   -3.1270 ha        1 TLS      0.108000
@<TRIPOS>BOND
     1    1    2 1   
     2    1    3 ar  
     3    1    4 ar  
     4    2    5 1   
     5    2    6 1   
     6    3    7 1   
     7    3    8 ar  
     8    4    9 ar  
     9    4   40 1   
    10    5    7 2   
    11    5   10 1   
    12    6   11 1   
    13    6   41 1   
    14    6   42 1   
    15    8   12 ar  
    16    8   13 1   
    17    9   12 ar  
    18    9   14 1   
    19   10   15 1   
    20   10   43 1   
    21   10   44 1   
    22   11   16 ar  
    23   11   17 ar  
    24   12   45 1   
    25   13   46 1   
    26   13   47 1   
    27   13   48 1   
    28   14   18 1   
    29   14   19 2   
    30   15   20 1   
    31   15   49 1   
    32   15   50 1   
    33   16   21 ar  
    34   16   51 1   
    35   17   22 ar  
    36   17   52 1   
    37   18   23 1   
    38   18   24 1   
    39   19   25 1   
    40   20   53 1   
    41   20   54 1   
    42   20   55 1   
    43   21   26 ar  
    44   21   56 1   
    45   22   26 ar  
    46   22   57 1   
    47   23   25 ar  
    48   23   27 ar  
    49   24   58 1   
    50   24   59 1   
    51   24   60 1   
    52   25   28 ar  
    53   26   29 1   
    54   27   30 ar  
    55   27   61 1   
    56   28   31 ar  
    57   28   62 1   
    58   29   32 ar  
    59   29   33 ar  
    60   30   31 ar  
    61   30   63 1   
    62   31   64 1   
    63   32   34 ar  
    64   32   35 1   
    65   33   36 ar  
    66   33   65 1   
    67   34   37 ar  
    68   34   66 1   
    69   35   38 1   
    70   35   39 1   
    71   36   37 ar  
    72   36   67 1   
    73   37   68 1   
@<TRIPOS>SUBSTRUCTURE
     1 TLS         1 TEMP              0 ****  ****    0 ROOT
