@<TRIPOS>MOLECULE
molecule
   33    34     1     0     0
SMALL
bcc


@<TRIPOS>ATOM
      1 N            0.0000     0.0000     0.0000 na         1 TLT      -0.003100
      2 C1           1.3550     0.0000     0.0000 cc         1 TLT       0.006400
      3 O1          -2.7340     0.1220     0.9340 o          1 TLT      -0.581100
      4 C2          -0.4410     0.0020     1.3050 cc         1 TLT      -0.255900
      5 O2           3.4080    -1.6650    -2.6210 o          1 TLT      -0.837800
      6 C3           1.7940     0.0000     1.2830 cd         1 TLT      -0.228000
      7 O3           2.2310    -2.3320    -0.8740 o          1 TLT      -0.837800
      8 C4           0.6750     0.0020     2.1200 cd         1 TLT      -0.153000
      9 C5           2.2310    -0.0020    -1.2260 c3         1 TLT      -0.136100
     10 C6          -1.8360     0.0030     1.7480 c          1 TLT       0.623300
     11 C7          -0.8540     0.0050    -1.1900 c3         1 TLT       0.037600
     12 C8          -2.1570    -0.1400     3.1850 ca         1 TLT      -0.144600
     13 C9          -3.3290     0.4160     3.7010 ca         1 TLT      -0.084500
     14 C10         -1.2910    -0.8360     4.0300 ca         1 TLT      -0.084500
     15 C11         -2.7560    -0.4080     5.8750 ca         1 TLT      -0.075300
     16 C12         -3.6220     0.2780     5.0420 ca         1 TLT      -0.149000
     17 C13         -1.5950    -0.9660     5.3690 ca         1 TLT      -0.149000
     18 C14          2.6230    -1.4180    -1.5610 c          1 TLT       0.889600
     19 C15         -3.0820    -0.5540     7.3390 c3         1 TLT      -0.047800
     20 H3           2.8290    -0.0000     1.6030 ha         1 TLT       0.146000
     21 H4           0.6810     0.0030     3.2030 ha         1 TLT       0.135000
     22 H5           1.6880     0.4280    -2.0580 hc         1 TLT       0.046200
     23 H5A          3.1210     0.5830    -1.0340 hc         1 TLT       0.046200
     24 H7          -1.4710     0.8960    -1.1880 h1         1 TLT       0.053367
     25 H7A         -1.4890    -0.8730    -1.1820 h1         1 TLT       0.053367
     26 H7B         -0.2360    -0.0040    -2.0790 h1         1 TLT       0.053367
     27 H9          -4.0070     0.9530     3.0500 ha         1 TLT       0.154500
     28 H10         -0.3820    -1.2730     3.6350 ha         1 TLT       0.154500
     29 H12         -4.5300     0.7110     5.4440 ha         1 TLT       0.125500
     30 H13         -0.9230    -1.5040     6.0260 ha         1 TLT       0.125500
     31 H15         -3.6060     0.3310     7.6820 hc         1 TLT       0.038367
     32 H15A        -2.1650    -0.6720     7.9040 hc         1 TLT       0.038367
     33 H15B        -3.7110    -1.4240     7.4840 hc         1 TLT       0.038367
@<TRIPOS>BOND
     1     1     2 1
     2     1     4 1
     3     1    11 1
     4     2     6 2
     5     2     9 1
     6     3    10 2
     7     4     8 2
     8     4    10 1
     9     5    18 1
    10     6     8 1
    11     7    18 1
    12     9    18 1
    13    10    12 1
    14    12    13 ar
    15    12    14 ar
    16    13    16 ar
    17    14    17 ar
    18    15    16 ar
    19    15    17 ar
    20    15    19 1
    21     6    20 1
    22     8    21 1
    23     9    22 1
    24     9    23 1
    25    11    24 1
    26    11    25 1
    27    11    26 1
    28    13    27 1
    29    14    28 1
    30    16    29 1
    31    17    30 1
    32    19    31 1
    33    19    32 1
    34    19    33 1
@<TRIPOS>SUBSTRUCTURE
     1 TLT         1 TEMP              0 ****  ****    0 ROOT
