@<TRIPOS>MOLECULE
TLT
   33    34     1     0     0
SMALL
bcc


@<TRIPOS>ATOM
      1 N          -0.0190   -0.0750   -0.0040 na        1 TLT      0.005900
      2 C1          1.3470    0.1470   -0.0160 cc        1 TLT      0.013400
      3 O1         -2.8310   -0.0870    0.9190 o         1 TLT     -0.586100
      4 C2         -0.4900    0.0500    1.3200 cc        1 TLT     -0.277900
      5 O2          3.5740   -1.8440   -1.4750 o         1 TLT     -0.829800
      6 C3          1.7650    0.4280    1.3170 cd        1 TLT     -0.252000
      7 O3          1.5810   -1.8220   -2.4910 o         1 TLT     -0.829800
      8 C4          0.6230    0.3630    2.1450 cd        1 TLT     -0.127000
      9 C5          2.2100    0.1240   -1.2120 c3        1 TLT     -0.170100
     10 C6         -1.8750   -0.0820    1.7170 c         1 TLT      0.617300
     11 C7         -0.8260   -0.4230   -1.1330 c3        1 TLT     -0.015400
     12 C8         -2.1330   -0.2020    3.1780 ca        1 TLT     -0.138600
     13 C9         -3.1950    0.5090    3.7480 ca        1 TLT     -0.089000
     14 C10        -1.3560   -1.0420    3.9830 ca        1 TLT     -0.089000
     15 C11        -2.6870   -0.4400    5.9180 ca        1 TLT     -0.076300
     16 C12        -3.4640    0.3970    5.1100 ca        1 TLT     -0.147500
     17 C13        -1.6340   -1.1600    5.3430 ca        1 TLT     -0.147500
     18 C14         2.4720   -1.3060   -1.7570 c         1 TLT      0.922600
     19 C15        -2.9840   -0.5760    7.3630 c3        1 TLT     -0.049800
     20 H3          2.7880    0.6320    1.6160 ha        1 TLT      0.148000
     21 H4          0.5820    0.5340    3.2170 ha        1 TLT      0.136000
     22 H5          3.1960    0.5820   -0.9410 hc        1 TLT      0.048200
     23 H5A         1.7470    0.7240   -2.0370 hc        1 TLT      0.048200
     24 H7         -1.3500    0.4940   -1.5160 h1        1 TLT      0.074367
     25 H7A        -1.6040   -1.1710   -0.8240 h1        1 TLT      0.074367
     26 H7B        -0.1700   -0.8670   -1.9410 h1        1 TLT      0.074367
     27 H9         -3.8170    1.1520    3.1060 ha        1 TLT      0.150000
     28 H10        -0.5230   -1.6080    3.5340 ha        1 TLT      0.150000
     29 H12        -4.2950    0.9660    5.5520 ha        1 TLT      0.125000
     30 H13        -1.0200   -1.8240    5.9700 ha        1 TLT      0.125000
     31 H15        -3.4920    0.3380    7.7570 hc        1 TLT      0.038367
     32 H15A       -2.0460   -0.7400    7.9490 hc        1 TLT      0.038367
     33 H15B       -3.6590   -1.4530    7.5320 hc        1 TLT      0.038367
@<TRIPOS>BOND
     1    1    2 1   
     2    1    4 1   
     3    1   11 1   
     4    2    6 2   
     5    2    9 1   
     6    3   10 2   
     7    4    8 2   
     8    4   10 1   
     9    5   18 1   
    10    6    8 1   
    11    6   20 1   
    12    7   18 1   
    13    8   21 1   
    14    9   18 1   
    15    9   22 1   
    16    9   23 1   
    17   10   12 1   
    18   11   24 1   
    19   11   25 1   
    20   11   26 1   
    21   12   13 ar  
    22   12   14 ar  
    23   13   16 ar  
    24   13   27 1   
    25   14   17 ar  
    26   14   28 1   
    27   15   16 ar  
    28   15   17 ar  
    29   15   19 1   
    30   16   29 1   
    31   17   30 1   
    32   19   31 1   
    33   19   32 1   
    34   19   33 1   
@<TRIPOS>SUBSTRUCTURE
     1 TLT         1 TEMP              0 ****  ****    0 ROOT
