@<TRIPOS>MOLECULE
TLV
   35    36     1     0     0
SMALL
bcc


@<TRIPOS>ATOM
      1 O9           0.0000     0.0000     0.0000 o          1 TLV      -0.815300
      2 C9           1.2080     0.0000     0.0000 c          1 TLV       0.955600
      3 O10          1.8790     0.0000     1.1620 o          1 TLV      -0.815300
      4 C8           1.9610    -0.0050    -1.3060 c3         1 TLV      -0.199500
      5 N8           1.0780    -0.4840    -2.3780 nz         1 TLV       0.078400
      6 C7           2.4310     1.4140    -1.6290 c3         1 TLV       0.041900
      7 C1           3.2880     1.3900    -2.8690 ca         1 TLV      -0.119300
      8 C2           4.6530     1.2020    -2.7600 ca         1 TLV      -0.100500
      9 C3           5.4410     1.1740    -3.8960 ca         1 TLV      -0.049600
     10 Cl2          7.1560     0.9390    -3.7600 cl         1 TLV       0.035100
     11 C6           2.7050     1.5480    -4.1120 ca         1 TLV      -0.100500
     12 C5           3.4880     1.5260    -5.2520 ca         1 TLV      -0.049600
     13 Cl4          2.7550     1.7250    -6.8130 cl         1 TLV       0.035100
     14 C4           4.8580     1.3330    -5.1470 ca         1 TLV       0.112100
     15 O4           5.6310     1.3060    -6.2660 os         1 TLV      -0.201200
     16 C15          5.8370     0.1060    -6.8700 ca         1 TLV       0.144100
     17 C13          6.6180     0.0290    -8.0130 ca         1 TLV      -0.149500
     18 C12          6.8270    -1.1910    -8.6280 ca         1 TLV      -0.030600
     19 Cl3          7.8040    -1.2860   -10.0600 cl         1 TLV       0.009100
     20 C14          5.2710    -1.0450    -6.3380 ca         1 TLV      -0.149500
     21 C10          5.4860    -2.2660    -6.9490 ca         1 TLV      -0.030600
     22 Cl1          4.7730    -3.7040    -6.2870 cl         1 TLV       0.009100
     23 C11          6.2580    -2.3410    -8.0980 ca         1 TLV       0.102100
     24 O44          6.4690    -3.5430    -8.7000 oh         1 TLV      -0.479100
     25 H2           2.8190    -0.6610    -1.2260 hx         1 TLV       0.088700
     26 H3           1.6290    -0.7590    -3.1670 hn         1 TLV       0.212800
     27 H4           0.5500    -1.2680    -2.0500 hn         1 TLV       0.212800
     28 H6           3.0090     1.8000    -0.7980 hc         1 TLV       0.060700
     29 H7           1.5710     2.0500    -1.7970 hc         1 TLV       0.060700
     30 H8           5.1100     1.0990    -1.7830 ha         1 TLV       0.127000
     31 H9           1.6400     1.7260    -4.1920 ha         1 TLV       0.127000
     32 H10          7.0640     0.9260    -8.4250 ha         1 TLV       0.130000
     33 H11          4.6880    -0.9900    -5.4270 ha         1 TLV       0.130000
     34 H12          5.8370    -3.6650    -9.3890 ho         1 TLV       0.407000
     35 H83          0.4510     0.2490    -2.6460 hn         1 TLV       0.212800
@<TRIPOS>BOND
     1     1     2 1   
     2     2     3 1   
     3     2     4 1   
     4     4     5 1   
     5     4     6 1   
     6     4    25 1   
     7     5    26 1   
     8     5    27 1   
     9     5    35 1   
    10     6     7 1   
    11     6    28 1   
    12     6    29 1   
    13     7     8 ar  
    14     7    11 ar  
    15     8     9 ar  
    16     8    30 1   
    17     9    10 1   
    18     9    14 ar  
    19    11    12 ar  
    20    11    31 1   
    21    12    13 1   
    22    12    14 ar  
    23    14    15 1   
    24    15    16 1   
    25    16    17 ar  
    26    16    20 ar  
    27    17    18 ar  
    28    17    32 1   
    29    18    19 1   
    30    18    23 ar  
    31    20    21 ar  
    32    20    33 1   
    33    21    22 1   
    34    21    23 ar  
    35    23    24 1   
    36    24    34 1   
@<TRIPOS>SUBSTRUCTURE
     1 TLV         1 TEMP              0 ****  ****    0 ROOT
