@<TRIPOS>MOLECULE
molecule
   35    36     1     0     0
SMALL
bcc


@<TRIPOS>ATOM
      1 O9           0.0000     0.0000     0.0000 o          1 TLV      -0.770300
      2 C9           1.2080     0.0000     0.0000 c          1 TLV       0.867600
      3 O10          1.8790     0.0000     1.1620 o          1 TLV      -0.770300
      4 C8           1.9610    -0.0050    -1.3060 c3         1 TLV      -0.014500
      5 N8           1.0780    -0.4840    -2.3780 nz         1 TLV      -0.791600
      6 C7           2.4310     1.4140    -1.6290 c3         1 TLV      -0.041100
      7 C1           3.2880     1.3900    -2.8690 ca         1 TLV      -0.099300
      8 C2           4.6530     1.2020    -2.7600 ca         1 TLV      -0.130000
      9 C3           5.4410     1.1740    -3.8960 ca         1 TLV       0.030900
     10 Cl2          7.1560     0.9390    -3.7600 cl         1 TLV      -0.055400
     11 C6           2.7050     1.5480    -4.1120 ca         1 TLV      -0.130000
     12 C5           3.4880     1.5260    -5.2520 ca         1 TLV       0.030900
     13 Cl4          2.7550     1.7250    -6.8130 cl         1 TLV      -0.055400
     14 C4           4.8580     1.3330    -5.1470 ca         1 TLV       0.105100
     15 O4           5.6310     1.3060    -6.2660 os         1 TLV      -0.220200
     16 C15          5.8370     0.1060    -6.8700 ca         1 TLV       0.148100
     17 C13          6.6180     0.0290    -8.0130 ca         1 TLV      -0.164000
     18 C12          6.8270    -1.1910    -8.6280 ca         1 TLV       0.043900
     19 Cl3          7.8040    -1.2860   -10.0600 cl         1 TLV      -0.072900
     20 C14          5.2710    -1.0450    -6.3380 ca         1 TLV      -0.164000
     21 C10          5.4860    -2.2660    -6.9490 ca         1 TLV       0.043900
     22 Cl1          4.7730    -3.7040    -6.2870 cl         1 TLV      -0.072900
     23 C11          6.2580    -2.3410    -8.0980 ca         1 TLV       0.090100
     24 O44          6.4690    -3.5430    -8.7000 oh         1 TLV      -0.495100
     25 H2           2.8190    -0.6610    -1.2260 hx         1 TLV       0.107700
     26 H3           1.6290    -0.7590    -3.1670 hn         1 TLV       0.441133
     27 H4           0.5500    -1.2680    -2.0500 hn         1 TLV       0.441133
     28 H6           3.0090     1.8000    -0.7980 hc         1 TLV       0.097700
     29 H7           1.5710     2.0500    -1.7970 hc         1 TLV       0.097700
     30 H8           5.1100     1.0990    -1.7830 ha         1 TLV       0.157500
     31 H9           1.6400     1.7260    -4.1920 ha         1 TLV       0.157500
     32 H10          7.0640     0.9260    -8.4250 ha         1 TLV       0.158000
     33 H11          4.6880    -0.9900    -5.4270 ha         1 TLV       0.158000
     34 H12          5.8370    -3.6650    -9.3890 ho         1 TLV       0.427000
     35 H83          0.4510     0.2490    -2.6460 hn         1 TLV       0.441133
@<TRIPOS>BOND
     1    22    21 1
     2    21    23 ar
     3    21    20 ar
     4    24    23 1
     5    23    18 ar
     6    20    16 ar
     7    10     9 1
     8    18    19 1
     9    18    17 ar
    10    16    17 ar
    11    16    15 1
    12    15    14 1
    13     9    14 ar
    14     9     8 ar
    15    14    12 ar
    16     8     7 ar
    17    12    13 1
    18    12    11 ar
    19     7    11 ar
    20     7     6 1
    21     6     4 1
    22     4     5 1
    23     4     2 1
    24     1     2 1
    25     2     3 1
    26     4    25 1
    27     5    26 1
    28     5    27 1
    29     6    28 1
    30     6    29 1
    31     8    30 1
    32    11    31 1
    33    17    32 1
    34    20    33 1
    35    24    34 1
    36    35     5 1
@<TRIPOS>SUBSTRUCTURE
     1 TLV         1 TEMP              0 ****  ****    0 ROOT
