@<TRIPOS>MOLECULE
TLX
   44    45     1     0     0
SMALL
bcc


@<TRIPOS>ATOM
      1 N1           0.0000     0.0000     0.0000 n3         1 TLX      -0.487600
      2 C2           1.4750     0.0000     0.0000 c3         1 TLX       0.105800
      3 C3           2.0210     0.0000     1.4280 c3         1 TLX      -0.017400
      4 C4           1.3950    -1.1390     2.2480 c3         1 TLX       0.145800
      5 N5          -0.0550    -0.9840     2.1720 n3         1 TLX      -0.506600
      6 C6          -0.7560    -2.0620     2.8780 c3         1 TLX       0.149800
      7 C7          -2.0180    -2.3710     2.0380 c3         1 TLX      -0.024400
      8 C8          -1.8900    -1.4710     0.7770 c3         1 TLX      -0.027400
      9 C9          -0.3780    -1.1960     0.7380 c3         1 TLX       0.264700
     10 C1'         -0.4210    -0.2090    -1.3900 c3         1 TLX       0.118800
     11 C2'         -0.0500     1.0160    -2.2260 c3         1 TLX      -0.067500
     12 C3'         -0.6430     0.8780    -3.6280 c3         1 TLX      -0.042400
     13 C4'         -0.2710     2.1030    -4.4650 c3         1 TLX      -0.067700
     14 C5'         -0.8670     1.9640    -5.8670 c3         1 TLX       0.006900
     15 CM'         -0.8280     3.3620    -3.7980 c3         1 TLX       0.006900
     16 N'           1.4120     1.1190    -2.3220 nz         1 TLX      -0.021600
     17 H21          1.8300    -0.8840    -0.5150 h1         1 TLX      -0.014300
     18 H22          1.8300     0.8850    -0.5150 h1         1 TLX      -0.014300
     19 H31          3.0950    -0.1330     1.3970 hc         1 TLX       0.037200
     20 H32          1.7860     0.9470     1.8980 hc         1 TLX       0.037200
     21 H41          1.7180    -1.0690     3.2790 h1         1 TLX       0.024700
     22 H42          1.6840    -2.0950     1.8290 h1         1 TLX       0.024700
     23 H61         -1.0420    -1.7320     3.8700 h1         1 TLX       0.026700
     24 H62         -0.1250    -2.9400     2.9380 h1         1 TLX       0.026700
     25 H71         -2.9110    -2.1140     2.5930 hc         1 TLX       0.029700
     26 H72         -2.0320    -3.4160     1.7530 hc         1 TLX       0.029700
     27 H81         -2.2070    -2.0050    -0.1110 hc         1 TLX       0.031200
     28 H82         -2.4460    -0.5500     0.9040 hc         1 TLX       0.031200
     29 H9           0.1530    -2.0590     0.3560 h2         1 TLX       0.015700
     30 H1'1         0.0770    -1.0840    -1.7910 h1         1 TLX       0.050200
     31 H1'2        -1.4940    -0.3570    -1.4240 h1         1 TLX       0.050200
     32 H2'         -0.4440     1.9080    -1.7540 hx         1 TLX       0.113700
     33 H3'1        -1.7220     0.8030    -3.5580 hc         1 TLX       0.054200
     34 H3'2        -0.2500    -0.0150    -4.1000 hc         1 TLX       0.054200
     35 H4'          0.8070     2.1780    -4.5360 hc         1 TLX       0.001700
     36 H5'1        -1.9470     1.9180    -5.7980 hc         1 TLX       0.017867
     37 H5'2        -0.5800     2.8190    -6.4680 hc         1 TLX       0.017867
     38 H5'3        -0.4950     1.0580    -6.3290 hc         1 TLX       0.017867
     39 HM'1        -1.8200     3.1600    -3.4150 hc         1 TLX       0.017867
     40 HM'2        -0.8780     4.1640    -4.5250 hc         1 TLX       0.017867
     41 HM'3        -0.1790     3.6560    -2.9820 hc         1 TLX       0.017867
     42 HN'1         1.7500     1.7460    -1.6190 hn         1 TLX       0.248800
     43 HN'2         1.8200     0.2150    -2.1860 hn         1 TLX       0.248800
     44 H'3          1.6640     1.4660    -3.2260 hn         1 TLX       0.248800
@<TRIPOS>BOND
     1     1     2 1   
     2     1     9 1   
     3     1    10 1   
     4     2     3 1   
     5     2    17 1   
     6     2    18 1   
     7     3     4 1   
     8     3    19 1   
     9     3    20 1   
    10     4     5 1   
    11     4    21 1   
    12     4    22 1   
    13     5     6 1   
    14     5     9 1   
    15     6     7 1   
    16     6    23 1   
    17     6    24 1   
    18     7     8 1   
    19     7    25 1   
    20     7    26 1   
    21     8     9 1   
    22     8    27 1   
    23     8    28 1   
    24     9    29 1   
    25    10    11 1   
    26    10    30 1   
    27    10    31 1   
    28    11    12 1   
    29    11    16 1   
    30    11    32 1   
    31    12    13 1   
    32    12    33 1   
    33    12    34 1   
    34    13    14 1   
    35    13    15 1   
    36    13    35 1   
    37    14    36 1   
    38    14    37 1   
    39    14    38 1   
    40    15    39 1   
    41    15    40 1   
    42    15    41 1   
    43    16    42 1   
    44    16    43 1   
    45    16    44 1   
@<TRIPOS>SUBSTRUCTURE
     1 TLX         1 TEMP              0 ****  ****    0 ROOT
