@<TRIPOS>MOLECULE
TLZ
   26    25     1     0     0
SMALL
bcc


@<TRIPOS>ATOM
      1 O6         -0.0540    0.1630    0.1440 oh        1 TLZ     -0.619800
      2 C6          1.3520   -0.0100    0.0500 c3        1 TLZ      0.096900
      3 C5          1.8940    0.1310    1.4740 c3        1 TLZ      0.144100
      4 O5          1.3370   -0.8560    2.3290 oh        1 TLZ     -0.621800
      5 C4          3.4210   -0.0770    1.4840 c3        1 TLZ      0.126100
      6 O4          3.9450    0.9390    0.6450 oh        1 TLZ     -0.608800
      7 C3          3.9820    0.0290    2.9170 c3        1 TLZ      0.126100
      8 O3          3.8850   -1.2160    3.5880 oh        1 TLZ     -0.608800
      9 C2          5.4650    0.4390    2.9170 c3        1 TLZ      0.144100
     10 O2          6.1270   -0.2880    1.8910 oh        1 TLZ     -0.621800
     11 C1          6.0990    0.1740    4.2840 c3        1 TLZ      0.096900
     12 O1          7.4530    0.5920    4.1760 oh        1 TLZ     -0.619800
     13 H1         -0.3990    0.1290   -0.7550 ho        1 TLZ      0.410500
     14 H2          1.8090    0.7760   -0.6060 h1        1 TLZ      0.048700
     15 H3          1.5830   -1.0300   -0.3580 h1        1 TLZ      0.048700
     16 H4          1.6410    1.1540    1.8710 h1        1 TLZ      0.058200
     17 H5          0.3790   -0.8220    2.2050 ho        1 TLZ      0.430000
     18 H6          3.6740   -1.0950    1.0770 h1        1 TLZ      0.057200
     19 H7          4.8660    0.7040    0.4640 ho        1 TLZ      0.430500
     20 H8          3.4060    0.8070    3.4930 h1        1 TLZ      0.057200
     21 H9          2.9690   -1.5160    3.5090 ho        1 TLZ      0.430500
     22 H10         5.5320    1.5380    2.6710 h1        1 TLZ      0.058200
     23 H11         7.0750   -0.2080    2.0580 ho        1 TLZ      0.430000
     24 H12         6.0420   -0.9190    4.5300 h1        1 TLZ      0.048700
     25 H13         5.5730    0.7700    5.0740 h1        1 TLZ      0.048700
     26 H14         7.9000    0.2920    4.9760 ho        1 TLZ      0.410500
@<TRIPOS>BOND
     1    1    2 1   
     2    1   13 1   
     3    2    3 1   
     4    2   14 1   
     5    2   15 1   
     6    3    4 1   
     7    3    5 1   
     8    3   16 1   
     9    4   17 1   
    10    5    6 1   
    11    5    7 1   
    12    5   18 1   
    13    6   19 1   
    14    7    8 1   
    15    7    9 1   
    16    7   20 1   
    17    8   21 1   
    18    9   10 1   
    19    9   11 1   
    20    9   22 1   
    21   10   23 1   
    22   11   12 1   
    23   11   24 1   
    24   11   25 1   
    25   12   26 1   
@<TRIPOS>SUBSTRUCTURE
     1 TLZ         1 TEMP              0 ****  ****    0 ROOT
