@<TRIPOS>MOLECULE
molecule
   26    25     1     0     0
SMALL
bcc


@<TRIPOS>ATOM
      1 O6           0.0000     0.0000     0.0000 oh         1 TLZ      -0.615800
      2 C6           1.4280     0.0000     0.0000 c3         1 TLZ       0.110900
      3 C5           1.9390     0.0000     1.4420 c3         1 TLZ       0.138100
      4 O5           1.5620    -1.2220     2.0800 oh         1 TLZ      -0.586800
      5 C4           3.4640     0.1260     1.4440 c3         1 TLZ       0.146600
      6 O4           3.8400     1.3480     0.8060 oh         1 TLZ      -0.587300
      7 C3           3.9730     0.1260     2.8860 c3         1 TLZ       0.146600
      8 O3           3.5960    -1.0970     3.5240 oh         1 TLZ      -0.587300
      9 C2           5.4990     0.2520     2.8880 c3         1 TLZ       0.138100
     10 O2           6.0630    -0.7850     2.0830 oh         1 TLZ      -0.586800
     11 C1           6.0180     0.1250     4.3210 c3         1 TLZ       0.110900
     12 O1           7.4290     0.3590     4.3390 oh         1 TLZ      -0.615800
     13 H1          -0.3140     0.0570    -0.8870 ho         1 TLZ       0.406000
     14 H2           1.7890     0.8840    -0.5110 h1         1 TLZ       0.033200
     15 H3           1.7890    -0.8840    -0.5110 h1         1 TLZ       0.033200
     16 H4           1.5070     0.8360     1.9790 h1         1 TLZ       0.049700
     17 H5           0.6580    -1.1730     2.3440 ho         1 TLZ       0.408000
     18 H6           3.8960    -0.7100     0.9070 h1         1 TLZ       0.061200
     19 H7           4.3230     1.1560     0.0200 ho         1 TLZ       0.403500
     20 H8           3.5410     0.9620     3.4220 h1         1 TLZ       0.061200
     21 H9           3.1790    -0.9060     4.3480 ho         1 TLZ       0.403500
     22 H10          5.7820     1.2170     2.4850 h1         1 TLZ       0.049700
     23 H11          6.8450    -0.4670     1.6640 ho         1 TLZ       0.408000
     24 H12          5.5230     0.8550     4.9510 h1         1 TLZ       0.033200
     25 H13          5.8130    -0.8710     4.6930 h1         1 TLZ       0.033200
     26 H14          7.7180     0.4710     5.2290 ho         1 TLZ       0.406000
@<TRIPOS>BOND
     1    12    11 1
     2    11     9 1
     3    10     9 1
     4     9     7 1
     5     8     7 1
     6     7     5 1
     7     5     6 1
     8     5     3 1
     9     2     3 1
    10     2     1 1
    11     3     4 1
    12     1    13 1
    13     2    14 1
    14     2    15 1
    15     3    16 1
    16     4    17 1
    17     5    18 1
    18     6    19 1
    19     7    20 1
    20     8    21 1
    21     9    22 1
    22    10    23 1
    23    11    24 1
    24    11    25 1
    25    12    26 1
@<TRIPOS>SUBSTRUCTURE
     1 TLZ         1 TEMP              0 ****  ****    0 ROOT
