@<TRIPOS>MOLECULE
molecule
   46    47     1     0     0
SMALL
bcc


@<TRIPOS>ATOM
      1 P            0.0000     0.0000     0.0000 p5         1 TM2       1.179900
      2 O1P          1.4800     0.0000     0.0000 o          1 TM2      -0.909167
      3 O2P         -0.5360     0.0000     1.5180 o          1 TM2      -0.909167
      4 O3P         -0.5370     1.3140    -0.7590 o          1 TM2      -0.909167
      5 O5'         -0.5370    -1.3150    -0.7580 os         1 TM2      -0.561200
      6 C5'         -0.1490    -1.6580    -2.0900 c3         1 TM2       0.224400
      7 C4'         -0.8380    -2.9600    -2.5030 c3         1 TM2       0.119100
      8 O4'         -2.2580    -2.7540    -2.5970 os         1 TM2      -0.344600
      9 C1'         -2.7340    -3.5930    -3.6710 c3         1 TM2       0.307500
     10 N1          -4.0170    -3.1010    -4.1790 n          1 TM2      -0.353000
     11 C6          -5.0880    -3.9490    -4.2500 cc         1 TM2       0.055600
     12 C2          -4.1330    -1.8180    -4.5680 c          1 TM2       0.799500
     13 O2          -3.1690    -1.0810    -4.4930 o          1 TM2      -0.607500
     14 N3          -5.2990    -1.3400    -5.0390 ns         1 TM2      -0.566500
     15 C4          -6.3770    -2.1450    -5.1280 c          1 TM2       0.718700
     16 O4          -7.4340    -1.7140    -5.5540 o          1 TM2      -0.638500
     17 C5          -6.2710    -3.4960    -4.7180 cd         1 TM2      -0.295400
     18 C2'         -1.6320    -3.4600    -4.7520 c3         1 TM2       0.074100
     19 O2'         -1.6180    -4.6030    -5.6100 oh         1 TM2      -0.599800
     20 C3'         -0.3440    -3.3960    -3.8950 c3         1 TM2       0.089100
     21 C7          -7.4620    -4.4160    -4.8020 c3         1 TM2       0.236000
     22 N8          -8.2850    -4.2650    -3.5950 n7         1 TM2      -0.801200
     23 C9          -9.4580    -5.1490    -3.6430 c3         1 TM2       0.181800
     24 C11        -10.2880    -4.9640    -2.3710 c3         1 TM2      -0.253600
     25 S12        -11.7360    -6.0540    -2.4310 s6         1 TM2       1.261800
     26 O1S        -12.6410    -5.6280    -3.4400 o          1 TM2      -0.717867
     27 O2S        -11.3390    -7.4150    -2.3300 o          1 TM2      -0.717867
     28 O3'          0.2750    -4.6820    -3.8260 oh         1 TM2      -0.596800
     29 O3S        -12.4710    -5.7800    -1.1270 o          1 TM2      -0.717867
     30 H5'1         0.9260    -1.7900    -2.1310 h1         1 TM2       0.023200
     31 H5'2        -0.4420    -0.8650    -2.7670 h1         1 TM2       0.023200
     32 H4'         -0.6280    -3.7390    -1.7790 h1         1 TM2       0.069700
     33 H3'          0.3410    -2.6600    -4.2990 h1         1 TM2       0.055700
     34 H1'         -2.8170    -4.6210    -3.3400 h2         1 TM2       0.077700
     35 H2'         -1.7610    -2.5460    -5.3190 h1         1 TM2       0.079700
     36 H6          -4.9880    -4.9800    -3.9310 h4         1 TM2       0.160000
     37 H3          -5.3670    -0.3830    -5.3230 hn         1 TM2       0.354500
     38 H7C1        -8.0520    -4.1640    -5.6750 h1         1 TM2       0.029700
     39 H7C2        -7.1210    -5.4420    -4.8810 h1         1 TM2       0.029700
     40 HA          -1.4740    -4.3270    -6.5000 ho         1 TM2       0.386000
     41 HB           1.1650    -4.6200    -4.1300 ho         1 TM2       0.388000
     42 H8          -7.7360    -4.4830    -2.7870 hn         1 TM2       0.352800
     43 H9C1        -9.1300    -6.1790    -3.7140 h1         1 TM2       0.026700
     44 H9C2       -10.0610    -4.9010    -4.5080 h1         1 TM2       0.026700
     45 H111       -10.6140    -3.9330    -2.3000 h1         1 TM2       0.084200
     46 H112        -9.6840    -5.2120    -1.5070 h1         1 TM2       0.084200
@<TRIPOS>BOND
     1     1     2 1
     2     1     3 1
     3     1     4 1
     4     1     5 1
     5     5     6 1
     6     6     7 1
     7     7     8 1
     8     7    20 1
     9     8     9 1
    10     9    10 1
    11     9    18 1
    12    10    11 1
    13    10    12 1
    14    11    17 2
    15    12    13 2
    16    12    14 1
    17    14    15 1
    18    15    16 2
    19    15    17 1
    20    17    21 1
    21    18    19 1
    22    18    20 1
    23    20    28 1
    24    21    22 1
    25    22    23 1
    26    23    24 1
    27    24    25 1
    28    25    26 1
    29    25    27 1
    30    25    29 1
    31     6    30 1
    32     6    31 1
    33     7    32 1
    34    20    33 1
    35     9    34 1
    36    18    35 1
    37    11    36 1
    38    14    37 1
    39    21    38 1
    40    21    39 1
    41    19    40 1
    42    28    41 1
    43    22    42 1
    44    23    43 1
    45    23    44 1
    46    24    45 1
    47    24    46 1
@<TRIPOS>SUBSTRUCTURE
     1 TM2         1 TEMP              0 ****  ****    0 ROOT
