@<TRIPOS>MOLECULE
TM3
   83    87     1     0     0
SMALL
bcc


@<TRIPOS>ATOM
      1 C1           0.0000     0.0000     0.0000 c3         1 TM3       0.214900
      2 C2           1.5310     0.0000     0.0000 c3         1 TM3       0.107800
      3 N3           2.0150     0.0000     1.3880 n3         1 TM3      -0.540600
      4 C4           1.5120    -1.1730     2.1160 c3         1 TM3       0.107800
      5 C5          -0.0190    -1.1620     2.0940 c3         1 TM3       0.214900
      6 O6          -0.4710    -1.1310     0.7380 os         1 TM3      -0.411600
      7 C13          3.4830     0.0580     1.4330 c3         1 TM3       0.160800
      8 C14          3.9390     0.3080     2.8720 c3         1 TM3      -0.052400
      9 C15          5.4670     0.3680     2.9190 c3         1 TM3       0.178800
     10 N16          5.9040     0.6070     4.2970 nu         1 TM3      -0.466200
     11 C17          7.2490     0.7000     4.5870 cc         1 TM3       0.369700
     12 N23          8.2170     0.5910     3.7120 nd         1 TM3      -0.618100
     13 C24          9.4160     0.7340     4.3370 ca         1 TM3       0.117400
     14 C25          9.1490     0.9460     5.6990 ca         1 TM3      -0.265200
     15 N26          7.7700     0.9260     5.8300 na         1 TM3       0.262700
     16 C32         10.1960     1.1280     6.5900 ca         1 TM3      -0.059000
     17 C33         11.4980     1.0990     6.1340 ca         1 TM3      -0.139300
     18 C34         11.7670     0.8890     4.7900 ca         1 TM3      -0.094000
     19 C35         10.7390     0.7070     3.8910 ca         1 TM3      -0.067000
     20 C41          7.0110     1.1090     7.0690 c3         1 TM3      -0.062000
     21 C42          6.5980     2.5540     7.1970 ca         1 TM3       0.304600
     22 C45          7.3740     3.4260     7.9460 ca         1 TM3       0.040800
     23 C46          6.9820     4.7560     8.0550 ca         1 TM3      -0.136000
     24 C47          5.8250     5.1570     7.4070 ca         1 TM3      -0.173300
     25 C48          5.1040     4.2290     6.6770 ca         1 TM3       0.351600
     26 N49          5.5070     2.9760     6.5890 nb         1 TM3      -0.543000
     27 O56          8.5010     2.9870     8.5660 oh         1 TM3      -0.479100
     28 C58          3.8450     4.6560     5.9690 c3         1 TM3      -0.036400
     29 C60         12.6350     1.2970     7.1040 c3         1 TM3       0.234100
     30 N61         13.0500    -0.0020     7.6400 nu         1 TM3      -0.439600
     31 C62         14.0950    -0.0720     8.5640 ca         1 TM3       0.083600
     32 C66         14.7410     1.0870     8.9760 ca         1 TM3      -0.200000
     33 C67         15.7740     1.0120     9.8900 ca         1 TM3      -0.040300
     34 C68         16.1640    -0.2140    10.3970 ca         1 TM3      -0.168000
     35 C69         15.5240    -1.3700     9.9890 ca         1 TM3      -0.043000
     36 C70         14.4860    -1.3020     9.0790 ca         1 TM3      -0.182300
     37 C77         16.4750     2.2690    10.3370 c3         1 TM3       0.061200
     38 C79         13.7850    -2.5610     8.6410 c3         1 TM3       0.044900
     39 C80         14.4130    -3.0700     7.3420 c3         1 TM3      -0.043400
     40 C81         13.7010    -4.3490     6.8970 c3         1 TM3       0.224400
     41 O82         14.2880    -4.8230     5.6840 oh         1 TM3      -0.591800
     42 H1          -0.3610    -0.0590    -1.0200 h1         1 TM3       0.012200
     43 H1A         -0.3610     0.9100     0.4650 h1         1 TM3       0.012200
     44 H2           1.8920     0.8860    -0.5080 h1         1 TM3       0.018450
     45 H2A          1.8920    -0.8860    -0.5080 h1         1 TM3       0.018450
     46 H4           1.8580    -1.1370     3.1410 h1         1 TM3       0.018450
     47 H4A          1.8730    -2.0760     1.6380 h1         1 TM3       0.018450
     48 H5          -0.3800    -0.2830     2.6150 h1         1 TM3       0.012200
     49 H5A         -0.3930    -2.0550     2.5790 h1         1 TM3       0.012200
     50 H13          3.8320     0.8640     0.7990 h1         1 TM3       0.013700
     51 H13A         3.8930    -0.8810     1.0820 h1         1 TM3       0.013700
     52 H14          3.5900    -0.4980     3.5060 hc         1 TM3       0.025200
     53 H14A         3.5300     1.2470     3.2230 hc         1 TM3       0.025200
     54 H15          5.8760    -0.5720     2.5680 h1         1 TM3       0.024700
     55 H15A         5.8160     1.1730     2.2850 h1         1 TM3       0.024700
     56 HN16         5.2290     0.6630     5.0340 hn         1 TM3       0.301800
     57 H32          9.9920     1.2930     7.6410 ha         1 TM3       0.112000
     58 H34         12.7940     0.8680     4.4440 ha         1 TM3       0.108000
     59 H35         10.9570     0.5430     2.8430 ha         1 TM3       0.111000
     60 H41          6.1280     0.4820     7.0480 h1         1 TM3       0.042200
     61 H41A         7.6290     0.8340     7.9150 h1         1 TM3       0.042200
     62 H46          7.5660     5.4610     8.6330 ha         1 TM3       0.120000
     63 H47          5.4880     6.1840     7.4710 ha         1 TM3       0.119000
     64 HO56         8.4930     3.2640     9.4670 ho         1 TM3       0.407000
     65 H58          3.1200     3.8510     6.0030 hc         1 TM3       0.015367
     66 H58A         4.0730     4.8920     4.9370 hc         1 TM3       0.015367
     67 H58B         3.4350     5.5320     6.4580 hc         1 TM3       0.015367
     68 H60         12.3100     1.9360     7.9160 h1         1 TM3       0.014200
     69 H66         14.4360     2.0480     8.5800 ha         1 TM3       0.117000
     70 H68         16.9760    -0.2690    11.1120 ha         1 TM3       0.106000
     71 H69         15.8310    -2.3280    10.3900 ha         1 TM3       0.099000
     72 H77         17.3220     2.0080    10.9590 hc         1 TM3       0.005367
     73 H77A        16.8200     2.8180     9.4690 hc         1 TM3       0.005367
     74 H77B        15.7870     2.8850    10.9030 hc         1 TM3       0.005367
     75 H79         13.8850    -3.3170     9.4100 hc         1 TM3       0.013200
     76 H79A        12.7350    -2.3510     8.4760 hc         1 TM3       0.013200
     77 H80         14.3130    -2.3140     6.5720 hc         1 TM3       0.029200
     78 H80A        15.4630    -3.2800     7.5070 hc         1 TM3       0.029200
     79 H81         13.8010    -5.1050     7.6660 h1         1 TM3      -0.018300
     80 H81A        12.6510    -4.1380     6.7310 h1         1 TM3      -0.018300
     81 HO82        13.8500    -5.6120     5.4100 ho         1 TM3       0.388000
     82 HO83        12.5520    -0.8310     7.3840 hn         1 TM3       0.307800
     83 HO84        13.4700     1.7600     6.5920 h1         1 TM3       0.014200
@<TRIPOS>BOND
     1     1     2 1   
     2     1     6 1   
     3     1    42 1   
     4     1    43 1   
     5     2     3 1   
     6     2    44 1   
     7     2    45 1   
     8     3     4 1   
     9     3     7 1   
    10     4     5 1   
    11     4    46 1   
    12     4    47 1   
    13     5     6 1   
    14     5    48 1   
    15     5    49 1   
    16     7     8 1   
    17     7    50 1   
    18     7    51 1   
    19     8     9 1   
    20     8    52 1   
    21     8    53 1   
    22     9    10 1   
    23     9    54 1   
    24     9    55 1   
    25    10    11 1   
    26    10    56 1   
    27    11    12 2   
    28    11    15 1   
    29    12    13 1   
    30    13    14 ar  
    31    13    19 ar  
    32    14    15 1   
    33    14    16 ar  
    34    15    20 1   
    35    16    17 ar  
    36    16    57 1   
    37    17    18 ar  
    38    17    29 1   
    39    18    19 ar  
    40    18    58 1   
    41    19    59 1   
    42    20    21 1   
    43    20    60 1   
    44    20    61 1   
    45    21    22 ar  
    46    21    26 ar  
    47    22    23 ar  
    48    22    27 1   
    49    23    24 ar  
    50    23    62 1   
    51    24    25 ar  
    52    24    63 1   
    53    25    26 ar  
    54    25    28 1   
    55    27    64 1   
    56    28    65 1   
    57    28    66 1   
    58    28    67 1   
    59    29    30 1   
    60    29    68 1   
    61    29    83 1   
    62    30    31 1   
    63    30    82 1   
    64    31    32 ar  
    65    31    36 ar  
    66    32    33 ar  
    67    32    69 1   
    68    33    34 ar  
    69    33    37 1   
    70    34    35 ar  
    71    34    70 1   
    72    35    36 ar  
    73    35    71 1   
    74    36    38 1   
    75    37    72 1   
    76    37    73 1   
    77    37    74 1   
    78    38    39 1   
    79    38    75 1   
    80    38    76 1   
    81    39    40 1   
    82    39    77 1   
    83    39    78 1   
    84    40    41 1   
    85    40    79 1   
    86    40    80 1   
    87    41    81 1   
@<TRIPOS>SUBSTRUCTURE
     1 TM3         1 TEMP              0 ****  ****    0 ROOT
