@<TRIPOS>MOLECULE
molecule
   15    15     1     0     0
SMALL
bcc


@<TRIPOS>ATOM
      1 C6           0.0000     0.0000     0.0000 c3         1 TM4      -0.031900
      2 C1           1.5070     0.0000     0.0000 cc         1 TM4       0.085900
      3 O1           2.1690     0.0000     1.1670 os         1 TM4      -0.176200
      4 C5           3.5060    -0.0000     1.2260 cc         1 TM4       0.062100
      5 C4           4.2490    -0.0000     0.1010 cd         1 TM4      -0.242200
      6 C3           3.5960     0.0010    -1.1570 cs         1 TM4       0.289800
      7 S1           4.4940     0.0010    -2.6140 s          1 TM4      -0.525400
      8 C2           2.1740    -0.0040    -1.1740 cd         1 TM4      -0.008100
      9 O2           1.4970    -0.0090    -2.3540 oh         1 TM4      -0.482100
     10 H1          -0.3610     0.8700    -0.5360 hc         1 TM4       0.069367
     11 H2          -0.3610    -0.8990    -0.4850 hc         1 TM4       0.069367
     12 H3          -0.3610     0.0290     1.0210 hc         1 TM4       0.069367
     13 H5           3.9980    -0.0000     2.1910 h4         1 TM4       0.198000
     14 H6           5.3160     0.1780     0.1580 ha         1 TM4       0.181000
     15 H4           1.7620    -0.7560    -2.8660 ho         1 TM4       0.441000
@<TRIPOS>BOND
     1     1     2 1
     2     2     3 1
     3     2     8 2
     4     9     8 1
     5     3     4 1
     6     8     6 1
     7     4     5 2
     8     6     5 1
     9     6     7 2
    10     1    10 1
    11     1    11 1
    12     1    12 1
    13     4    13 1
    14     5    14 1
    15     9    15 1
@<TRIPOS>SUBSTRUCTURE
     1 TM4         1 TEMP              0 ****  ****    0 ROOT
