@<TRIPOS>MOLECULE
TM4
   15    15     1     0     0
SMALL
bcc


@<TRIPOS>ATOM
      1 C6         -0.0000   -0.0050    0.0880 c3        1 TM4     -0.047900
      2 C1          1.4720   -0.0110   -0.0420 cc        1 TM4      0.062900
      3 O1          2.1040    0.1580    1.1770 os        1 TM4     -0.198200
      4 C5          3.4730    0.1790    1.1780 cc        1 TM4      0.065100
      5 C4          4.2300    0.0410    0.0640 cd        1 TM4     -0.261200
      6 C3          3.6390   -0.1450   -1.2380 c         1 TM4      0.247800
      7 S1          4.4630   -0.3170   -2.5550 s         1 TM4     -0.391400
      8 C2          2.1820   -0.1580   -1.2050 cd        1 TM4     -0.011100
      9 O2          1.4540   -0.3230   -2.3600 oh        1 TM4     -0.494100
     10 H1         -0.4490   -0.5550   -0.7770 hc        1 TM4      0.070033
     11 H2         -0.3140   -0.4890    1.0460 hc        1 TM4      0.070033
     12 H3         -0.3740    1.0500    0.0800 hc        1 TM4      0.070033
     13 H5          3.8380    0.3230    2.2090 h4        1 TM4      0.186000
     14 H6          5.3300    0.0660    0.1260 ha        1 TM4      0.177000
     15 H4          2.0980   -0.4300   -3.0910 ho        1 TM4      0.454000
@<TRIPOS>BOND
     1    1    2 1   
     2    1   10 1   
     3    1   11 1   
     4    1   12 1   
     5    2    3 1   
     6    2    8 2   
     7    3    4 1   
     8    4    5 2   
     9    4   13 1   
    10    5    6 1   
    11    5   14 1   
    12    6    7 2   
    13    6    8 1   
    14    8    9 1   
    15    9   15 1   
@<TRIPOS>SUBSTRUCTURE
     1 TM4         1 TEMP              0 ****  ****    0 ROOT
