@<TRIPOS>MOLECULE
molecule
   15    15     1     0     0
SMALL
bcc


@<TRIPOS>ATOM
      1 S            0.0000     0.0000     0.0000 s          1 TM7      -0.496400
      2 O1           4.4390     0.0000     0.0000 os         1 TM7      -0.181200
      3 C1           3.7910     0.0000     1.1750 cc         1 TM7       0.028100
      4 C2           2.4420     0.0000     1.2220 cd         1 TM7      -0.005100
      5 C3           1.7120     0.0000     0.0010 cs         1 TM7       0.297800
      6 C4           2.4410     0.0000    -1.2150 cd         1 TM7      -0.246200
      7 C5           3.7880     0.0000    -1.1700 cc         1 TM7       0.108900
      8 C6           4.5730    -0.0000    -2.4560 c3         1 TM7      -0.043900
      9 H1           1.7370    -0.8820     2.7460 ho         1 TM7       0.425000
     10 H2           4.3580     0.0010     2.0980 h4         1 TM7       0.201000
     11 H3           1.9300     0.1800    -2.1530 ha         1 TM7       0.180000
     12 H4           5.6330    -0.0300    -2.2320 hc         1 TM7       0.069033
     13 H5           4.3480     0.8990    -3.0170 hc         1 TM7       0.069033
     14 H6           4.3040    -0.8690    -3.0430 hc         1 TM7       0.069033
     15 O2           1.7910    -0.0000     2.4170 oh         1 TM7      -0.476100
@<TRIPOS>BOND
     1     2     3 1
     2     2     7 1
     3     3     4 2
     4     8     7 1
     5     7     6 2
     6     4    15 1
     7     4     5 1
     8     6     5 1
     9     5     1 2
    10    15     9 1
    11     3    10 1
    12     6    11 1
    13     8    12 1
    14     8    13 1
    15     8    14 1
@<TRIPOS>SUBSTRUCTURE
     1 TM7         1 TEMP              0 ****  ****    0 ROOT
