@<TRIPOS>MOLECULE
TM7
   15    15     1     0     0
SMALL
bcc


@<TRIPOS>ATOM
      1 S           0.3990    0.5790   -0.4230 s         1 TM7      0.116000
      2 O1          4.7550   -0.3790    0.1450 os        1 TM7     -0.063000
      3 C1          4.1560    0.1900    1.1540 c1        1 TM7      0.111000
      4 C2          2.6690    0.5850    1.1380 c3        1 TM7     -0.073000
      5 C3          1.7670    0.0510   -0.0710 c2        1 TM7     -0.159000
      6 C4          2.6730   -0.9700   -0.5630 c2        1 TM7     -0.257000
      7 C5          3.8800   -0.4740   -1.0010 c2        1 TM7     -0.052000
      8 C6          4.3080    0.2060   -2.2160 c3        1 TM7     -0.173000
      9 H1          1.2950    0.5820    2.4850 ho        1 TM7      0.216000
     10 H2          2.6450    1.7120    1.1000 h1        1 TM7      0.120000
     11 H3          2.6790   -1.8790    0.0740 ha        1 TM7      0.165000
     12 H4          3.4370    0.7090   -2.7090 hc        1 TM7      0.108667
     13 H5          5.1090    0.9590   -2.0090 hc        1 TM7      0.108667
     14 H6          4.7190   -0.5560   -2.9300 hc        1 TM7      0.108667
     15 O2          2.1240    0.1020    2.3450 oh        1 TM7     -0.275000
@<TRIPOS>BOND
     1    1    5 1   
     2    2    3 1   
     3    2    7 1   
     4    3    4 1   
     5    4    5 1   
     6    4   10 1   
     7    4   15 1   
     8    5    6 1   
     9    6    7 1   
    10    6   11 1   
    11    7    8 1   
    12    8   12 1   
    13    8   13 1   
    14    8   14 1   
    15    9   15 1   
@<TRIPOS>SUBSTRUCTURE
     1 TM7         1 TEMP              0 ****  ****    0 ROOT
