@<TRIPOS>MOLECULE
TMA
   17    16     1     0     0
SMALL
bcc


@<TRIPOS>ATOM
      1 N1           0.0000     0.0000     0.0000 n4         1 TMA       0.046200
      2 C1           1.4690     0.0000     0.0000 c3         1 TMA       0.021350
      3 C2          -0.4900     0.0000     1.3850 c3         1 TMA       0.021350
      4 C3          -0.4900     1.1990    -0.6920 c3         1 TMA       0.021350
      5 C4          -0.4900    -1.1990    -0.6920 c3         1 TMA       0.021350
      6 H11          1.8300     0.0000    -1.0210 hx         1 TMA       0.072700
      7 H12          1.8300     0.8840     0.5110 hx         1 TMA       0.072700
      8 H13          1.8300    -0.8850     0.5110 hx         1 TMA       0.072700
      9 H21         -1.5730    -0.0000     1.3850 hx         1 TMA       0.072700
     10 H22         -0.1290    -0.8840     1.8960 hx         1 TMA       0.072700
     11 H23         -0.1290     0.8850     1.8960 hx         1 TMA       0.072700
     12 H31         -1.5740     1.1990    -0.6920 hx         1 TMA       0.072700
     13 H32         -0.1300     2.0840    -0.1810 hx         1 TMA       0.072700
     14 H33         -0.1300     1.2000    -1.7130 hx         1 TMA       0.072700
     15 H41         -1.5730    -1.2000    -0.6920 hx         1 TMA       0.072700
     16 H42         -0.1290    -1.2000    -1.7140 hx         1 TMA       0.072700
     17 H43         -0.1280    -2.0840    -0.1820 hx         1 TMA       0.072700
@<TRIPOS>BOND
     1     1     2 1   
     2     1     3 1   
     3     1     4 1   
     4     1     5 1   
     5     2     6 1   
     6     2     7 1   
     7     2     8 1   
     8     3     9 1   
     9     3    10 1   
    10     3    11 1   
    11     4    12 1   
    12     4    13 1   
    13     4    14 1   
    14     5    15 1   
    15     5    16 1   
    16     5    17 1   
@<TRIPOS>SUBSTRUCTURE
     1 TMA         1 TEMP              0 ****  ****    0 ROOT
