@<TRIPOS>MOLECULE
TMC
   34    36     1     0     0
SMALL
bcc


@<TRIPOS>ATOM
      1 O16        -0.2070   -0.6650    0.2850 oh        1 TMC     -0.610800
      2 O18         0.0330   -0.0500    3.2130 oh        1 TMC     -0.595800
      3 O9          5.8150    2.1760    3.7360 o         1 TMC     -0.641500
      4 O7          5.7350    5.9330    1.1170 o         1 TMC     -0.609500
      5 N8          3.9490    2.4780    2.3700 n         1 TMC     -0.370000
      6 N5          5.7770    4.0660    2.4210 n         1 TMC     -0.584500
      7 C1          1.7540   -0.1270    1.4760 cx        1 TMC     -0.174000
      8 C10         0.9230    0.7210    2.4290 c3        1 TMC      0.184100
      9 C14         1.9120    1.4080    3.3850 c3        1 TMC     -0.104400
     10 C17         3.3440    1.2310    2.8150 c3        1 TMC      0.128700
     11 C13         3.2200    0.1960    1.6960 cx        1 TMC     -0.134700
     12 C15         2.6710   -1.1410    2.1120 cx        1 TMC     -0.086400
     13 C12         1.1730   -0.3600    0.1170 c3        1 TMC      0.172400
     14 C11         5.2130    2.8690    2.8870 c         1 TMC      0.808500
     15 C6          5.1560    4.8920    1.4670 c         1 TMC      0.716700
     16 C4          3.8490    4.4350    0.9620 cc        1 TMC     -0.260400
     17 C2          3.3160    3.2710    1.4260 cd        1 TMC      0.040600
     18 C3          3.1780    5.2860   -0.0390 c3        1 TMC     -0.028900
     19 H16        -0.5370   -0.9280   -0.5810 ho        1 TMC      0.410000
     20 H5          6.6620    4.3260    2.8010 hn        1 TMC      0.353500
     21 H10         0.3360    1.4770    1.8370 h1        1 TMC      0.043700
     22 H142        1.6340    2.4820    3.5160 hc        1 TMC      0.075700
     23 H141        1.8600    0.9160    4.3900 hc        1 TMC      0.075700
     24 H17         4.0140    0.8110    3.6270 h1        1 TMC      0.114700
     25 H13         3.9430    0.2620    0.8690 hc        1 TMC      0.102700
     26 H152        2.9630   -2.0320    1.5270 hc        1 TMC      0.085200
     27 H151        2.5400   -1.3660    3.1870 hc        1 TMC      0.085200
     28 H122        1.2720    0.5690   -0.5110 h1        1 TMC      0.030200
     29 H121        1.6970   -1.2090   -0.4000 h1        1 TMC      0.030200
     30 H2          2.3360    2.8890    1.0760 h4        1 TMC      0.167000
     31 H33         3.0460    6.3220    0.3660 hc        1 TMC      0.050700
     32 H32         2.1760    4.8760   -0.3150 hc        1 TMC      0.050700
     33 H31         3.8070    5.3590   -0.9620 hc        1 TMC      0.050700
     34 H18        -0.5090   -0.5560    2.5920 ho        1 TMC      0.425000
@<TRIPOS>BOND
     1    1   13 1   
     2    1   19 1   
     3    2    8 1   
     4    2   34 1   
     5    3   14 2   
     6    4   15 2   
     7    5   10 1   
     8    5   14 1   
     9    5   17 1   
    10    6   14 1   
    11    6   15 1   
    12    6   20 1   
    13    7    8 1   
    14    7   11 1   
    15    7   12 1   
    16    7   13 1   
    17    8    9 1   
    18    8   21 1   
    19    9   10 1   
    20    9   22 1   
    21    9   23 1   
    22   10   11 1   
    23   10   24 1   
    24   11   12 1   
    25   11   25 1   
    26   12   26 1   
    27   12   27 1   
    28   13   28 1   
    29   13   29 1   
    30   15   16 1   
    31   16   17 2   
    32   16   18 1   
    33   17   30 1   
    34   18   31 1   
    35   18   32 1   
    36   18   33 1   
@<TRIPOS>SUBSTRUCTURE
     1 TMC         1 TEMP              0 ****  ****    0 ROOT
