@<TRIPOS>MOLECULE
molecule
   11    10     1     0     0
SMALL
bcc


@<TRIPOS>ATOM
      1 C1           0.0000     0.0000     0.0000 c3         1 TME      -0.092100
      2 C2           1.5300     0.0000     0.0000 c3         1 TME      -0.086400
      3 C3           2.0400     0.0000     1.4420 c3         1 TME      -0.092100
      4 H11         -0.3610     0.0000    -1.0210 hc         1 TME       0.032033
      5 H12         -0.3610     0.8850     0.5110 hc         1 TME       0.032033
      6 H13         -0.3610    -0.8850     0.5110 hc         1 TME       0.032033
      7 H21          1.8910     0.8840    -0.5110 hc         1 TME       0.038700
      8 H22          1.8910    -0.8840    -0.5110 hc         1 TME       0.038700
      9 H31          1.6790    -0.8850     1.9530 hc         1 TME       0.032033
     10 H32          1.6790     0.8850     1.9530 hc         1 TME       0.032033
     11 H33          3.1230     0.0000     1.4420 hc         1 TME       0.032033
@<TRIPOS>BOND
     1     1     2 1
     2     1     4 1
     3     1     5 1
     4     1     6 1
     5     2     3 1
     6     2     7 1
     7     2     8 1
     8     3     9 1
     9     3    10 1
    10     3    11 1
@<TRIPOS>SUBSTRUCTURE
     1 TME         1 TEMP              0 ****  ****    0 ROOT
