@<TRIPOS>MOLECULE
TME
   11    10     1     0     0
SMALL
bcc


@<TRIPOS>ATOM
      1 C1          0.0060   -0.0000   -0.0070 c3        1 TME     -0.093100
      2 C2          1.5130   -0.0000    0.0240 c3        1 TME     -0.081400
      3 C3          2.0440    0.0000    1.4340 c3        1 TME     -0.093100
      4 H11        -0.3980   -0.9050    0.5080 hc        1 TME      0.032367
      5 H12        -0.3620    0.0000   -1.0610 hc        1 TME      0.032367
      6 H13        -0.3980    0.9050    0.5080 hc        1 TME      0.032367
      7 H21         1.8980   -0.9030   -0.5210 hc        1 TME      0.036700
      8 H22         1.8990    0.9020   -0.5210 hc        1 TME      0.036700
      9 H31         1.6930    0.9050    1.9870 hc        1 TME      0.032367
     10 H32         3.1610    0.0000    1.4300 hc        1 TME      0.032367
     11 H33         1.6930   -0.9050    1.9870 hc        1 TME      0.032367
@<TRIPOS>BOND
     1    1    2 1   
     2    1    4 1   
     3    1    5 1   
     4    1    6 1   
     5    2    3 1   
     6    2    7 1   
     7    2    8 1   
     8    3    9 1   
     9    3   10 1   
    10    3   11 1   
@<TRIPOS>SUBSTRUCTURE
     1 TME         1 TEMP              0 ****  ****    0 ROOT
