@<TRIPOS>MOLECULE
TMF
   53    56     1     0     0
SMALL
bcc


@<TRIPOS>ATOM
      1 N1         -2.2880   -1.1820    1.5600 na        1 TMF     -0.251000
      2 C2         -1.1690   -1.0160    0.7320 c2        1 TMF      0.218000
      3 NA2        -1.2600   -1.5870   -0.5780 nh        1 TMF     -0.319000
      4 N3         -0.0530   -0.3840    1.1010 n2        1 TMF     -0.321000
      5 C4          0.0980    0.0620    2.4250 c2        1 TMF      0.316000
      6 O4          1.1170    0.7000    2.7420 o         1 TMF     -0.318000
      7 C4A        -1.0000   -0.2420    3.4000 c2        1 TMF     -0.105000
      8 N5         -0.7830   -0.0500    4.7710 nh        1 TMF     -0.177000
      9 C6         -1.9290   -0.3120    5.6710 c3        1 TMF     -0.085000
     10 C7         -3.1850   -0.7760    4.9930 c2        1 TMF     -0.025000
     11 N8         -3.3190   -1.0420    3.7350 n2        1 TMF     -0.171000
     12 C8A        -2.1760   -0.8210    2.9160 c2        1 TMF     -0.002000
     13 C9         -2.1770    1.0070    6.4680 c3        1 TMF     -0.128000
     14 N10        -0.9850    1.8470    6.3030 n3        1 TMF     -0.183000
     15 C11         2.4800    1.8880    8.7450 c2        1 TMF     -0.261000
     16 C12         1.9400    3.1790    8.2240 c3        1 TMF     -0.138000
     17 C13         0.6630    3.1560    7.5290 c1        1 TMF     -0.023000
     18 C14        -0.1940    1.9620    7.5380 c3        1 TMF     -0.079000
     19 C15         0.4730    0.6980    8.0090 c2        1 TMF     -0.163000
     20 C16         1.6850    0.6860    8.5760 c2        1 TMF     -0.125000
     21 O           4.7200    1.8410    9.8880 o         1 TMF     -0.181000
     22 N          -2.8410   -0.4180   12.1700 n3        1 TMF     -0.328000
     23 CA         -2.7390   -1.2810   11.0020 c3        1 TMF     -0.109000
     24 CB         -1.7820   -2.4570   11.2130 c3        1 TMF     -0.151000
     25 CG         -2.2150   -3.3170   12.3550 cx        1 TMF      0.010000
     26 CD         -1.2740   -3.8670   13.3190 cu        1 TMF      0.274000
     27 OE1        -1.7080   -4.7240   12.3390 os        1 TMF     -0.302000
     28 OE2        -0.5090   -4.0270   14.2430 o         1 TMF     -0.263000
     29 CT         -2.3340   -0.5560    9.6890 c2        1 TMF      0.305000
     30 O1         -2.2950    0.7100    9.6790 o         1 TMF     -0.586500
     31 O2         -2.0850   -1.2580    8.6650 o         1 TMF     -0.586500
     32 CP1        -0.2190    1.2690    5.1770 c3        1 TMF     -0.010000
     33 HN1        -3.0560   -1.7510    1.2820 hn        1 TMF      0.252000
     34 HN21       -2.0960   -1.3250   -1.0570 hn        1 TMF      0.194500
     35 HN22       -0.4430   -1.4060   -1.1270 hn        1 TMF      0.194500
     36 H6         -1.6010   -1.1130    6.4090 h1        1 TMF      0.187000
     37 H7         -4.0700   -0.8980    5.6480 h4        1 TMF      0.175000
     38 H91        -3.0410    1.5730    6.0300 h1        1 TMF      0.138500
     39 H92        -2.3980    0.7570    7.5480 h1        1 TMF      0.138500
     40 H12         1.8220    3.9230    9.0670 hc        1 TMF      0.127000
     41 H13         2.6740    3.6330    7.4940 hc        1 TMF      0.127000
     42 H15        -0.9560    2.2120    8.3760 h1        1 TMF      0.210000
     43 H16        -0.1470   -0.2190    7.9410 ha        1 TMF      0.187000
     44 HN          2.1220   -0.2540    8.9500 ha        1 TMF      0.121000
     45 HA         -3.3570    0.4020   11.8970 hn        1 TMF      0.137000
     46 HB1        -3.7740   -1.6970   10.8200 h1        1 TMF      0.089000
     47 HB2        -0.7390   -2.0820   11.3770 hc        1 TMF      0.119500
     48 HG1        -1.7750   -3.0640   10.2650 hc        1 TMF      0.119500
     49 HG2        -3.2890   -3.2520   12.6260 h1        1 TMF      0.153000
     50 HCP1        0.8630    1.0840    5.4380 h2        1 TMF      0.113000
     51 HCP2       -0.2650    2.0110    4.3280 h2        1 TMF      0.113000
     52 H2         -1.9210   -0.1050   12.4260 hn        1 TMF      0.137000
     53 C           3.6550    1.8530    9.3470 c1        1 TMF      0.233000
@<TRIPOS>BOND
     1    1    2 1
     2    1   12 1
     3    1   33 1
     4    2    3 1
     5    2    4 1
     6    3   34 1
     7    3   35 1
     8    4    5 1
     9    5    6 1
    10    5    7 1
    11    7    8 1
    12    7   12 1
    13    8    9 1
    14    8   32 1
    15    9   10 1
    16    9   13 1
    17    9   36 1
    18   10   11 1
    19   10   37 1
    20   11   12 1
    21   13   14 1
    22   13   38 1
    23   13   39 1
    24   14   18 1
    25   14   32 1
    26   15   16 1
    27   15   20 1
    28   15   53 1
    29   16   17 1
    30   16   40 1
    31   16   41 1
    32   17   18 1
    33   18   19 1
    34   18   42 1
    35   19   20 1
    36   19   43 1
    37   20   44 1
    38   21   53 1
    39   22   23 1
    40   22   45 1
    41   22   52 1
    42   23   24 1
    43   23   29 1
    44   23   46 1
    45   24   25 1
    46   24   47 1
    47   24   48 1
    48   25   26 1
    49   25   27 1
    50   25   49 1
    51   26   27 1
    52   26   28 1
    53   29   30 1
    54   29   31 1
    55   32   50 1
    56   32   51 1
@<TRIPOS>SUBSTRUCTURE
     1 TMF         1 TEMP              0 ****  ****    0 ROOT
