@<TRIPOS>MOLECULE
TMG
   21    23     1     0     0
SMALL
bcc


@<TRIPOS>ATOM
      1 C2         -0.0020    0.0010   -0.0300 ca        1 TMG      0.065400
      2 N7          1.4020    0.0040   -0.0750 nc        1 TMG     -0.563100
      3 C9          1.8000   -0.0010    1.2220 cd        1 TMG      0.380800
      4 C10         3.1880   -0.0000    1.6720 cd        1 TMG      0.310000
      5 C14         4.2830    0.0040    0.8100 cc        1 TMG     -0.200400
      6 S13         5.7070    0.0030    1.6790 ss        1 TMG     -0.063300
      7 C12         4.8380   -0.0020    3.1540 cc        1 TMG      0.368300
      8 N11         3.5180   -0.0030    3.0330 nd        1 TMG     -0.628000
      9 N8          0.7150   -0.0060    2.1290 na        1 TMG     -0.258300
     10 C6         -0.4450   -0.0050    1.3560 ca        1 TMG     -0.071200
     11 C5         -1.8070   -0.0080    1.6860 ca        1 TMG     -0.134000
     12 C4         -2.7160   -0.0060    0.6400 ca        1 TMG     -0.112000
     13 C3         -2.3000    0.0000   -0.7050 ca        1 TMG     -0.154000
     14 C1         -0.9600    0.0040   -1.0570 ca        1 TMG     -0.069000
     15 H14         4.2160    0.0060   -0.2790 h4        1 TMG      0.206000
     16 H12         5.3220   -0.0040    4.1350 h5        1 TMG      0.059100
     17 HN8         0.7770   -0.0090    3.1120 hn        1 TMG      0.320700
     18 H5         -2.1380   -0.0130    2.7320 ha        1 TMG      0.136000
     19 H4         -3.7940   -0.0080    0.8620 ha        1 TMG      0.132000
     20 H3         -3.0660    0.0020   -1.4950 ha        1 TMG      0.132000
     21 H1         -0.6440    0.0090   -2.1100 ha        1 TMG      0.146000
@<TRIPOS>BOND
     1    1    2 1   
     2    1   10 ar  
     3    1   14 ar  
     4    2    3 2   
     5    3    4 1   
     6    3    9 1   
     7    4    5 2   
     8    4    8 1   
     9    5    6 1   
    10    5   15 1   
    11    6    7 1   
    12    7    8 2   
    13    7   16 1   
    14    9   10 1   
    15    9   17 1   
    16   10   11 ar  
    17   11   12 ar  
    18   11   18 1   
    19   12   13 ar  
    20   12   19 1   
    21   13   14 ar  
    22   13   20 1   
    23   14   21 1   
@<TRIPOS>SUBSTRUCTURE
     1 TMG         1 TEMP              0 ****  ****    0 ROOT
