@<TRIPOS>MOLECULE
molecule
   21    23     1     0     0
SMALL
bcc


@<TRIPOS>ATOM
      1 C2           0.0000     0.0000     0.0000 ca         1 TMG       0.093400
      2 N7           1.3550     0.0000     0.0000 nc         1 TMG      -0.604100
      3 C9           1.7960     0.0000     1.2360 cd         1 TMG       0.389800
      4 C10          3.2190     0.0010     1.6310 cd         1 TMG       0.344000
      5 C14          4.2160     0.0010     0.6880 cc         1 TMG      -0.078400
      6 S13          5.6610     0.0010     1.7400 ss         1 TMG      -0.270300
      7 C12          4.8350     0.0010     3.2660 cc         1 TMG       0.488300
      8 N11          3.5750     0.0070     2.9080 nd         1 TMG      -0.725000
      9 N8           0.7370    -0.0120     2.1040 na         1 TMG      -0.245300
     10 C6          -0.4160    -0.0090     1.3430 ca         1 TMG      -0.089200
     11 C5          -1.7700    -0.0100     1.6480 ca         1 TMG      -0.129000
     12 C4          -2.7030    -0.0050     0.6320 ca         1 TMG      -0.113000
     13 C3          -2.2980     0.0030    -0.6950 ca         1 TMG      -0.147000
     14 C1          -0.9600     0.0060    -1.0180 ca         1 TMG      -0.071000
     15 H14          4.1470     0.0010    -0.3930 h4         1 TMG       0.220000
     16 H12          5.2550     0.0030     4.2650 h5         1 TMG       0.083100
     17 HN8          0.7890    -0.0150     3.1040 hn         1 TMG       0.317700
     18 H5          -2.0930    -0.0160     2.6820 ha         1 TMG       0.127000
     19 H4          -3.7590    -0.0070     0.8720 ha         1 TMG       0.132000
     20 H3          -3.0410     0.0070    -1.4840 ha         1 TMG       0.133000
     21 H1          -0.6510     0.0110    -2.0560 ha         1 TMG       0.141000
@<TRIPOS>BOND
     1     1     2 1
     2     1    10 ar
     3     1    14 ar
     4     2     3 2
     5     3     4 1
     6     3     9 1
     7     4     5 2
     8     4     8 1
     9     5     6 1
    10     5    15 1
    11     6     7 1
    12     7     8 2
    13     7    16 1
    14     9    10 1
    15     9    17 1
    16    10    11 ar
    17    11    12 ar
    18    11    18 1
    19    12    13 ar
    20    12    19 1
    21    13    14 ar
    22    13    20 1
    23    14    21 1
@<TRIPOS>SUBSTRUCTURE
     1 TMG         1 TEMP              0 ****  ****    0 ROOT
