@<TRIPOS>MOLECULE
molecule
   26    27     1     0     0
SMALL
bcc


@<TRIPOS>ATOM
      1 C3           0.0000     0.0000     0.0000 c2         1 TMH      -0.183200
      2 C2           1.3130     0.0000     0.0000 c2         1 TMH      -0.106400
      3 C1           2.0120     0.0000     1.3480 cy         1 TMH      -0.044500
      4 C6           1.3570     1.0020     2.3160 cy         1 TMH      -0.094400
      5 C5           0.2510    -0.0620     2.4750 cy         1 TMH      -0.085700
      6 C4          -0.7460     0.0100     1.3110 c3         1 TMH      -0.022200
      7 C7           1.3700    -1.0920     2.2400 cy         1 TMH      -0.080000
      8 C8           2.1810    -1.4250     3.4940 c3         1 TMH      -0.076100
      9 C9           0.9170    -2.3330     1.4690 c3         1 TMH      -0.076100
     10 C10          2.0970    -0.0030    -1.2870 c3         1 TMH      -0.046900
     11 H3          -0.5420     0.1070    -0.9320 ha         1 TMH       0.126000
     12 H1           3.0960     0.0040     1.3400 hc         1 TMH       0.065700
     13 H61          1.9310     1.1630     3.2210 hc         1 TMH       0.056200
     14 H62          1.0150     1.9070     1.8300 hc         1 TMH       0.056200
     15 H5          -0.1860    -0.0990     3.4660 hc         1 TMH       0.059700
     16 H41         -1.3250     0.9230     1.3890 hc         1 TMH       0.050700
     17 H42         -1.4120    -0.8430     1.3530 hc         1 TMH       0.050700
     18 H81          2.6020    -0.5150     3.9040 hc         1 TMH       0.037533
     19 H82          1.5350    -1.8880     4.2290 hc         1 TMH       0.037533
     20 H83          2.9810    -2.1080     3.2350 hc         1 TMH       0.037533
     21 H91          0.2110    -2.8940     2.0700 hc         1 TMH       0.037533
     22 H92          1.7760    -2.9550     1.2480 hc         1 TMH       0.037533
     23 H93          0.4430    -2.0310     0.5430 hc         1 TMH       0.037533
     24 H101         1.7140    -0.7760    -1.9420 hc         1 TMH       0.041367
     25 H102         3.1410    -0.1940    -1.0740 hc         1 TMH       0.041367
     26 H103         1.9980     0.9610    -1.7720 hc         1 TMH       0.041367
@<TRIPOS>BOND
     1     1     2 2
     2     1     6 1
     3     1    11 1
     4     2     3 1
     5     2    10 1
     6     3     4 1
     7     3     7 1
     8     3    12 1
     9     4     5 1
    10     4    13 1
    11     4    14 1
    12     5     6 1
    13     5     7 1
    14     5    15 1
    15     6    16 1
    16     6    17 1
    17     7     8 1
    18     7     9 1
    19     8    18 1
    20     8    19 1
    21     8    20 1
    22     9    21 1
    23     9    22 1
    24     9    23 1
    25    10    24 1
    26    10    25 1
    27    10    26 1
@<TRIPOS>SUBSTRUCTURE
     1 TMH         1 TEMP              0 ****  ****    0 ROOT
