@<TRIPOS>MOLECULE
TMH
   26    27     1     0     0
SMALL
bcc


@<TRIPOS>ATOM
      1 C3         -0.0300   -0.0090    0.0060 c2        1 TMH     -0.179200
      2 C2          1.3200    0.0260   -0.0120 c2        1 TMH     -0.110400
      3 C1          2.0080    0.0110    1.3210 cy        1 TMH     -0.041500
      4 C6          1.2380    1.0520    2.1970 cy        1 TMH     -0.090400
      5 C5          0.2160   -0.0880    2.4740 cy        1 TMH     -0.075700
      6 C4         -0.7660   -0.1050    1.3080 c3        1 TMH     -0.037200
      7 C7          1.3670   -1.1240    2.2080 cy        1 TMH     -0.063000
      8 C8          2.1860   -1.3930    3.4490 c3        1 TMH     -0.080100
      9 C9          1.0030   -2.4300    1.5630 c3        1 TMH     -0.080100
     10 C10         2.1450    0.1000   -1.2300 c3        1 TMH     -0.050900
     11 H3         -0.6390    0.0160   -0.9050 ha        1 TMH      0.125000
     12 H1          3.1090    0.0640    1.2900 hc        1 TMH      0.070700
     13 H61         0.8390    1.9310    1.6530 hc        1 TMH      0.052700
     14 H62         1.7990    1.3830    3.0950 hc        1 TMH      0.052700
     15 H5         -0.2620   -0.1220    3.4680 hc        1 TMH      0.065700
     16 H41        -1.4770    0.7570    1.4010 hc        1 TMH      0.048700
     17 H42        -1.3690   -1.0500    1.3280 hc        1 TMH      0.048700
     18 H81         1.6190   -2.0600    4.1430 hc        1 TMH      0.036367
     19 H82         2.4300   -0.4490    3.9930 hc        1 TMH      0.036367
     20 H83         3.1440   -1.8970    3.1740 hc        1 TMH      0.036367
     21 H91         1.9150   -3.0640    1.4390 hc        1 TMH      0.036367
     22 H92         0.2760   -2.9790    2.2100 hc        1 TMH      0.036367
     23 H93         0.5400   -2.2920    0.5560 hc        1 TMH      0.036367
     24 H101        2.8230   -0.7890   -1.2900 hc        1 TMH      0.041367
     25 H102        2.7810    1.0200   -1.2100 hc        1 TMH      0.041367
     26 H103        1.5130    0.1260   -2.1520 hc        1 TMH      0.041367
@<TRIPOS>BOND
     1    1    2 2   
     2    1    6 1   
     3    1   11 1   
     4    2    3 1   
     5    2   10 1   
     6    3    4 1   
     7    3    7 1   
     8    3   12 1   
     9    4    5 1   
    10    4   13 1   
    11    4   14 1   
    12    5    6 1   
    13    5    7 1   
    14    5   15 1   
    15    6   16 1   
    16    6   17 1   
    17    7    8 1   
    18    7    9 1   
    19    8   18 1   
    20    8   19 1   
    21    8   20 1   
    22    9   21 1   
    23    9   22 1   
    24    9   23 1   
    25   10   24 1   
    26   10   25 1   
    27   10   26 1   
@<TRIPOS>SUBSTRUCTURE
     1 TMH         1 TEMP              0 ****  ****    0 ROOT
