@<TRIPOS>MOLECULE
molecule
   42    45     1     0     0
SMALL
bcc


@<TRIPOS>ATOM
      1 CBB          0.0000     0.0000     0.0000 ca         1 TMI      -0.112000
      2 CBC          1.3820     0.0000     0.0000 ca         1 TMI      -0.128500
      3 CBD          2.0730     0.0000     1.1970 ca         1 TMI      -0.121000
      4 CBE          1.3820     0.0010     2.3950 ca         1 TMI      -0.128500
      5 CBF         -0.0000     0.0010     2.3950 ca         1 TMI      -0.112000
      6 CBA         -0.6910     0.0000     1.1970 ca         1 TMI      -0.119300
      7 CAA         -2.1980     0.0000     1.1970 c3         1 TMI       0.153600
      8 NAB         -2.6870    -0.5430     2.4660 na         1 TMI      -0.182900
      9 CAF         -3.4770     0.1040     3.3770 cc         1 TMI      -0.278600
     10 CAE         -3.6880    -0.7550     4.3920 cd         1 TMI       0.308200
     11 NAD         -3.0430    -1.8980     4.1090 nd         1 TMI      -0.699000
     12 CAC         -2.4460    -1.7800     2.9540 cc         1 TMI       0.399400
     13 CCA         -2.7010    -0.8510     0.0600 ca         1 TMI      -0.112300
     14 CCB         -3.6080    -0.3280    -0.8440 ca         1 TMI      -0.106500
     15 CCC         -4.0710    -1.1030    -1.8880 ca         1 TMI      -0.121000
     16 CCF         -2.2490    -2.1510    -0.0800 ca         1 TMI      -0.106500
     17 CCE         -2.7050    -2.9350    -1.1200 ca         1 TMI      -0.121000
     18 CCD         -3.6230    -2.4150    -2.0310 cp         1 TMI      -0.020000
     19 CDA         -4.1170    -3.2530    -3.1510 cp         1 TMI      -0.041000
     20 CDB         -3.6700    -4.5650    -3.2940 ca         1 TMI      -0.116500
     21 CDC         -4.1320    -5.3400    -4.3370 ca         1 TMI      -0.126500
     22 CDD         -5.0400    -4.8170    -5.2420 ca         1 TMI      -0.123000
     23 CDE         -5.4880    -3.5150    -5.1040 ca         1 TMI      -0.126500
     24 CDF         -5.0350    -2.7330    -4.0610 ca         1 TMI      -0.116500
     25 HBB         -0.5420    -0.0010    -0.9380 ha         1 TMI       0.143500
     26 HBC          1.9240    -0.0010    -0.9380 ha         1 TMI       0.134000
     27 HBD          3.1570    -0.0000     1.1970 ha         1 TMI       0.132000
     28 HBE          1.9240     0.0020     3.3330 ha         1 TMI       0.134000
     29 HBF         -0.5420     0.0020     3.3330 ha         1 TMI       0.143500
     30 HAA         -2.5590     1.0140     1.0750 h1         1 TMI       0.084700
     31 HAF         -3.8600     1.1150     3.2970 h4         1 TMI       0.171000
     32 HAE         -4.2730    -0.5580     5.2820 h4         1 TMI       0.040100
     33 HAC         -1.8500    -2.5440     2.4700 h5         1 TMI       0.066100
     34 HCB         -3.9550     0.6920    -0.7330 ha         1 TMI       0.135000
     35 HCC         -4.7830    -0.6920    -2.5940 ha         1 TMI       0.138500
     36 HCF         -1.5350    -2.5550     0.6280 ha         1 TMI       0.135000
     37 HCE         -2.3520    -3.9530    -1.2280 ha         1 TMI       0.138500
     38 HDB         -2.9590    -4.9750    -2.5860 ha         1 TMI       0.132500
     39 HDC         -3.7850    -6.3600    -4.4490 ha         1 TMI       0.131500
     40 HDD         -5.3990    -5.4280    -6.0610 ha         1 TMI       0.131000
     41 HDE         -6.2000    -3.1110    -5.8140 ha         1 TMI       0.131500
     42 HDF         -5.3870    -1.7140    -3.9550 ha         1 TMI       0.132500
@<TRIPOS>BOND
     1     1     2 ar
     2     1     6 ar
     3     1    25 1
     4     2     3 ar
     5     2    26 1
     6     3     4 ar
     7     3    27 1
     8     4     5 ar
     9     4    28 1
    10     5     6 ar
    11     5    29 1
    12     6     7 1
    13     7     8 1
    14     7    13 1
    15     7    30 1
    16     8     9 1
    17     8    12 1
    18     9    10 2
    19     9    31 1
    20    10    11 1
    21    10    32 1
    22    11    12 2
    23    12    33 1
    24    13    14 ar
    25    13    16 ar
    26    14    15 ar
    27    14    34 1
    28    15    18 ar
    29    15    35 1
    30    16    17 ar
    31    16    36 1
    32    17    18 ar
    33    17    37 1
    34    18    19 1
    35    19    20 ar
    36    19    24 ar
    37    20    21 ar
    38    20    38 1
    39    21    22 ar
    40    21    39 1
    41    22    23 ar
    42    22    40 1
    43    23    24 ar
    44    23    41 1
    45    24    42 1
@<TRIPOS>SUBSTRUCTURE
     1 TMI         1 TEMP              0 ****  ****    0 ROOT
