@<TRIPOS>MOLECULE
TMI
   42    45     1     0     0
SMALL
bcc


@<TRIPOS>ATOM
      1 CBB        -0.1420    1.0620    0.4030 ca        1 TMI     -0.115500
      2 CBC         1.2440    1.1980    0.3550 ca        1 TMI     -0.128000
      3 CBD         2.0580    0.3310    1.0840 ca        1 TMI     -0.122000
      4 CBE         1.4810   -0.6740    1.8580 ca        1 TMI     -0.128000
      5 CBF         0.0940   -0.8170    1.9040 ca        1 TMI     -0.115500
      6 CBA        -0.7250    0.0510    1.1770 ca        1 TMI     -0.106300
      7 CAA        -2.2360   -0.0600    1.1860 c3        1 TMI      0.154600
      8 NAB        -2.7890   -0.4420    2.4670 na        1 TMI     -0.204900
      9 CAF        -3.1620    0.4410    3.4860 cc        1 TMI     -0.253600
     10 CAE        -3.5780   -0.3600    4.5640 cd        1 TMI      0.289200
     11 NAD        -3.4600   -1.7100    4.2320 nd        1 TMI     -0.670000
     12 CAC        -2.9780   -1.7390    2.9730 cc        1 TMI      0.390400
     13 CCA        -2.7040   -0.9680    0.0690 ca        1 TMI     -0.105300
     14 CCB        -3.8010   -0.5800   -0.7070 ca        1 TMI     -0.110000
     15 CCC        -4.2440   -1.3880   -1.7520 ca        1 TMI     -0.121000
     16 CCF        -2.0630   -2.1800   -0.2040 ca        1 TMI     -0.110000
     17 CCE        -2.5060   -2.9900   -1.2460 ca        1 TMI     -0.121000
     18 CCD        -3.6010   -2.6030   -2.0320 cp        1 TMI     -0.021000
     19 CDA        -4.0660   -3.4520   -3.1270 cp        1 TMI     -0.045000
     20 CDB        -4.1190   -4.8450   -2.9710 ca        1 TMI     -0.115500
     21 CDC        -4.5640   -5.6520   -4.0160 ca        1 TMI     -0.130500
     22 CDD        -4.9570   -5.0810   -5.2260 ca        1 TMI     -0.124000
     23 CDE        -4.9060   -3.6970   -5.3880 ca        1 TMI     -0.130500
     24 CDF        -4.4650   -2.8850   -4.3460 ca        1 TMI     -0.115500
     25 HBB        -0.7780    1.7510   -0.1730 ha        1 TMI      0.137000
     26 HBC         1.6940    1.9930   -0.2570 ha        1 TMI      0.135500
     27 HBD         3.1520    0.4420    1.0480 ha        1 TMI      0.134000
     28 HBE         2.1190   -1.3580    2.4380 ha        1 TMI      0.135500
     29 HBF        -0.3480   -1.6130    2.5240 ha        1 TMI      0.137000
     30 HAA        -2.6450    0.9810    0.9760 h1        1 TMI      0.073700
     31 HAF        -3.1060    1.5210    3.3730 h4        1 TMI      0.175000
     32 HAE        -3.9500   -0.0440    5.5370 h4        1 TMI      0.041100
     33 HAC        -2.7750   -2.6350    2.3770 h5        1 TMI      0.062100
     34 HCB        -4.3230    0.3650   -0.4930 ha        1 TMI      0.139000
     35 HCC        -5.1100   -1.0770   -2.3550 ha        1 TMI      0.140000
     36 HCF        -1.1950   -2.4880    0.4000 ha        1 TMI      0.139000
     37 HCE        -1.9890   -3.9380   -1.4600 ha        1 TMI      0.140000
     38 HDB        -3.8150   -5.2990   -2.0160 ha        1 TMI      0.135000
     39 HDC        -4.6060   -6.7440   -3.8840 ha        1 TMI      0.133500
     40 HDD        -5.3070   -5.7200   -6.0500 ha        1 TMI      0.133000
     41 HDE        -5.2140   -3.2430   -6.3420 ha        1 TMI      0.133500
     42 HDF        -4.4210   -1.7930   -4.4800 ha        1 TMI      0.135000
@<TRIPOS>BOND
     1    1    2 ar  
     2    1    6 ar  
     3    1   25 1   
     4    2    3 ar  
     5    2   26 1   
     6    3    4 ar  
     7    3   27 1   
     8    4    5 ar  
     9    4   28 1   
    10    5    6 ar  
    11    5   29 1   
    12    6    7 1   
    13    7    8 1   
    14    7   13 1   
    15    7   30 1   
    16    8    9 1   
    17    8   12 1   
    18    9   10 2   
    19    9   31 1   
    20   10   11 1   
    21   10   32 1   
    22   11   12 2   
    23   12   33 1   
    24   13   14 ar  
    25   13   16 ar  
    26   14   15 ar  
    27   14   34 1   
    28   15   18 ar  
    29   15   35 1   
    30   16   17 ar  
    31   16   36 1   
    32   17   18 ar  
    33   17   37 1   
    34   18   19 1   
    35   19   20 ar  
    36   19   24 ar  
    37   20   21 ar  
    38   20   38 1   
    39   21   22 ar  
    40   21   39 1   
    41   22   23 ar  
    42   22   40 1   
    43   23   24 ar  
    44   23   41 1   
    45   24   42 1   
@<TRIPOS>SUBSTRUCTURE
     1 TMI         1 TEMP              0 ****  ****    0 ROOT
