@<TRIPOS>MOLECULE
TMJ
   36    38     1     0     0
SMALL
bcc


@<TRIPOS>ATOM
      1 C1           0.0000     0.0000     0.0000 c3         1 TMJ       0.025900
      2 C10         -2.0290     2.1820     5.6820 ca         1 TMJ       0.045600
      3 C14         -0.2610     0.3820     6.8460 ca         1 TMJ      -0.044600
      4 C13          0.0270     1.7470     6.8550 ca         1 TMJ      -0.089000
      5 C15         -1.4360    -0.0790     6.2520 ca         1 TMJ      -0.089000
      6 C12         -0.8610     2.6510     6.2700 ca         1 TMJ      -0.103500
      7 C11         -2.3230     0.8240     5.6670 ca         1 TMJ      -0.103500
      8 C6          -1.9280     1.3990     0.8230 ca         1 TMJ      -0.134000
      9 C4           0.2180     1.6060     1.9380 ca         1 TMJ      -0.112300
     10 C2           1.5300     0.0000     0.0000 c3         1 TMJ       0.145800
     11 C3           1.6800     1.2520     2.0510 c3         1 TMJ       0.210100
     12 Cl1          0.8350    -0.7320     7.5680 cl         1 TMJ      -0.017400
     13 N2          -2.9440     3.1140     5.0790 nu         1 TMJ      -0.398500
     14 O2          -3.5260     4.6880     3.1200 o          1 TMJ      -0.561300
     15 O1          -1.3060     4.9620     4.2580 o          1 TMJ      -0.561300
     16 C8          -1.6840     2.9140     2.6870 ca         1 TMJ      -0.145500
     17 C9          -0.3410     2.5530     2.8060 ca         1 TMJ       0.013000
     18 C7          -2.4770     2.3350     1.6980 ca         1 TMJ       0.014000
     19 C5          -0.5790     1.0380     0.9280 ca         1 TMJ      -0.012300
     20 N1           2.0350     0.0000     1.3720 n7         1 TMJ      -0.574200
     21 H11A        -0.3490    -0.9780     0.3100 hc         1 TMJ       0.028700
     22 H12A        -0.3490     0.1990    -1.0060 hc         1 TMJ       0.028700
     23 H13          0.9390     2.1050     7.3150 ha         1 TMJ       0.116500
     24 H15         -1.6590    -1.1390     6.2450 ha         1 TMJ       0.116500
     25 H12         -0.6400     3.7110     6.2740 ha         1 TMJ       0.129000
     26 H11         -3.2360     0.4690     5.2050 ha         1 TMJ       0.129000
     27 H6          -2.5480     0.9520     0.0550 ha         1 TMJ       0.112000
     28 H21          1.8760    -0.8980    -0.4970 h1         1 TMJ       0.010200
     29 H22          1.8760     0.8980    -0.4970 h1         1 TMJ       0.010200
     30 H31          2.2630     2.0560     1.6190 h1         1 TMJ       0.013200
     31 H32          1.9320     1.1580     3.1000 h1         1 TMJ       0.013200
     32 HN2         -3.7940     3.3560     5.5490 hn         1 TMJ       0.344800
     33 H9           0.2740     3.0110     3.5710 ha         1 TMJ       0.125000
     34 H7          -3.5200     2.6130     1.6090 ha         1 TMJ       0.124000
     35 HN1          3.0300    -0.1030     1.3610 hn         1 TMJ       0.257800
     36 S1          -2.3710     4.0890     3.7800 sy         1 TMJ       0.933200
@<TRIPOS>BOND
     1     1    10 1   
     2     1    19 1   
     3     1    21 1   
     4     1    22 1   
     5     2     6 ar  
     6     2     7 ar  
     7     2    13 1   
     8     3     4 ar  
     9     3     5 ar  
    10     3    12 1   
    11     4     6 ar  
    12     4    23 1   
    13     5     7 ar  
    14     5    24 1   
    15     6    25 1   
    16     7    26 1   
    17     8    18 ar  
    18     8    19 ar  
    19     8    27 1   
    20     9    11 1   
    21     9    17 ar  
    22     9    19 ar  
    23    10    20 1   
    24    10    28 1   
    25    10    29 1   
    26    11    20 1   
    27    11    30 1   
    28    11    31 1   
    29    13    32 1   
    30    13    36 1   
    31    14    36 2   
    32    15    36 2   
    33    16    17 ar  
    34    16    18 ar  
    35    16    36 1   
    36    17    33 1   
    37    18    34 1   
    38    20    35 1   
@<TRIPOS>SUBSTRUCTURE
     1 TMJ         1 TEMP              0 ****  ****    0 ROOT
