@<TRIPOS>MOLECULE
TMM
   18    18     1     0     0
SMALL
bcc


@<TRIPOS>ATOM
      1 C1         -0.0160    0.0020   -0.0090 ca        1 TMM     -0.188600
      2 C2          1.3850    0.0010    0.0100 ca        1 TMM     -0.082000
      3 C3          2.0940    0.0000    1.2180 ca        1 TMM     -0.188600
      4 C4          1.3770    0.0010    2.4220 ca        1 TMM     -0.082000
      5 C5         -0.0240    0.0030    2.4320 ca        1 TMM     -0.188600
      6 C6         -0.7080    0.0030    1.2090 ca        1 TMM     -0.082000
      7 C1A        -0.7660    0.0030   -1.3170 c         1 TMM      0.906200
      8 C3A         3.6020   -0.0020    1.2230 c         1 TMM      0.906200
      9 C5A        -0.7820    0.0040    3.7360 c         1 TMM      0.906200
     10 O1A        -0.1270    0.0020   -2.4190 o         1 TMM     -0.888300
     11 O2A        -2.0390    0.0050   -1.3230 o         1 TMM     -0.888300
     12 O3A         4.2440   -0.0020    0.1230 o         1 TMM     -0.888300
     13 O4A         4.2370   -0.0030    2.3270 o         1 TMM     -0.888300
     14 O5A        -0.1500    0.0010    4.8410 o         1 TMM     -0.888300
     15 O6A        -2.0550    0.0070    3.7330 o         1 TMM     -0.888300
     16 H2          1.9390    0.0000   -0.9430 ha        1 TMM      0.141000
     17 H4          1.9250    0.0000    3.3780 ha        1 TMM      0.141000
     18 H6         -1.8090    0.0050    1.2060 ha        1 TMM      0.141000
@<TRIPOS>BOND
     1    1    2 ar  
     2    1    6 ar  
     3    1    7 1   
     4    2    3 ar  
     5    2   16 1   
     6    3    4 ar  
     7    3    8 1   
     8    4    5 ar  
     9    4   17 1   
    10    5    6 ar  
    11    5    9 1   
    12    6   18 1   
    13    7   10 1   
    14    7   11 1   
    15    8   12 1   
    16    8   13 1   
    17    9   14 1   
    18    9   15 1   
@<TRIPOS>SUBSTRUCTURE
     1 TMM         1 TEMP              0 ****  ****    0 ROOT
