@<TRIPOS>MOLECULE
molecule
   18    18     1     0     0
SMALL
bcc


@<TRIPOS>ATOM
      1 C1           0.0000     0.0000     0.0000 ca         1 TMM      -0.193933
      2 C2           1.3930     0.0000     0.0000 ca         1 TMM      -0.069667
      3 C3           2.0900     0.0000     1.2090 ca         1 TMM      -0.193933
      4 C4           1.3920     0.0000     2.4160 ca         1 TMM      -0.069667
      5 C5          -0.0020     0.0000     2.4140 ca         1 TMM      -0.193933
      6 C6          -0.6980     0.0040     1.2050 ca         1 TMM      -0.069667
      7 C1A         -0.7380     0.0000    -1.2800 c          1 TMM       0.900867
      8 C3A          3.5680    -0.0000     1.2100 c          1 TMM       0.900867
      9 C5A         -0.7420    -0.0000     3.6940 c          1 TMM       0.900867
     10 O1A         -0.1290     0.0000    -2.3320 o          1 TMM      -0.890967
     11 O2A         -2.0840    -0.0010    -1.2820 o          1 TMM      -0.890967
     12 O3A          4.1760    -0.0000     0.1580 o          1 TMM      -0.890967
     13 O4A          4.2400    -0.0000     2.3760 o          1 TMM      -0.890967
     14 O5A         -0.1360    -0.0010     4.7450 o          1 TMM      -0.890967
     15 O6A         -2.0890    -0.0000     3.6920 o          1 TMM      -0.890967
     16 H2           1.9350    -0.0020    -0.9380 ha         1 TMM       0.145000
     17 H4           1.9330    -0.0020     3.3540 ha         1 TMM       0.145000
     18 H6          -1.7810     0.0040     1.2040 ha         1 TMM       0.145000
@<TRIPOS>BOND
     1     1     2 ar
     2     1     6 ar
     3     1     7 1
     4     2     3 ar
     5     2    16 1
     6     3     4 ar
     7     3     8 1
     8     4     5 ar
     9     4    17 1
    10     5     6 ar
    11     5     9 1
    12     6    18 1
    13     7    10 1
    14     7    11 1
    15     8    12 1
    16     8    13 1
    17     9    14 1
    18     9    15 1
@<TRIPOS>SUBSTRUCTURE
     1 TMM         1 TEMP              0 ****  ****    0 ROOT
