@<TRIPOS>MOLECULE
TMN
   20    19     1     0     0
SMALL
bcc


@<TRIPOS>ATOM
      1 C            0.0000     0.0000     0.0000 c3         1 TMN      -0.120800
      2 C1           1.5300     0.0000     0.0000 c3         1 TMN       0.224400
      3 C2          -0.5090     0.0000     1.4430 c3         1 TMN       0.224400
      4 C3          -0.5100    -1.2490    -0.7200 c3         1 TMN       0.224400
      5 N           -0.4900     1.1990    -0.6920 nz         1 TMN       0.083400
      6 O1           2.0060    -1.1660     0.6730 oh         1 TMN      -0.602800
      7 O2          -0.1310     1.2210     2.0810 oh         1 TMN      -0.602800
      8 O3          -0.0350    -1.2490    -2.0680 oh         1 TMN      -0.602800
      9 H11          1.8920     0.8840     0.5110 h1         1 TMN       0.027033
     10 H12          1.8920    -0.0000    -1.0210 h1         1 TMN       0.027033
     11 H21         -1.5890    -0.0890     1.4450 h1         1 TMN       0.027033
     12 H22         -0.0770    -0.8360     1.9790 h1         1 TMN       0.027033
     13 H31         -0.1480    -2.1340    -0.2100 h1         1 TMN       0.027033
     14 H32         -1.5930    -1.2500    -0.7190 h1         1 TMN       0.027033
     15 HN1         -0.1770     1.1870    -1.6420 hn         1 TMN       0.230467
     16 HN2         -1.4900     1.2120    -0.6700 hn         1 TMN       0.230467
     17 HO1          2.9490    -1.1650     0.6770 ho         1 TMN       0.439333
     18 HO2         -0.4920     1.2460     2.9520 ho         1 TMN       0.439333
     19 HO3         -0.4000    -1.9850    -2.5310 ho         1 TMN       0.439333
     20 HN3         -0.1280     2.0160    -0.2400 hn         1 TMN       0.230467
@<TRIPOS>BOND
     1     1     2 1   
     2     1     3 1   
     3     1     4 1   
     4     1     5 1   
     5     2     6 1   
     6     2     9 1   
     7     2    10 1   
     8     3     7 1   
     9     3    11 1   
    10     3    12 1   
    11     4     8 1   
    12     4    13 1   
    13     4    14 1   
    14     5    15 1   
    15     5    16 1   
    16     5    20 1   
    17     6    17 1   
    18     7    18 1   
    19     8    19 1   
@<TRIPOS>SUBSTRUCTURE
     1 TMN         1 TEMP              0 ****  ****    0 ROOT
