@<TRIPOS>MOLECULE
molecule
   14    13     1     0     0
SMALL
bcc


@<TRIPOS>ATOM
      1 CAA          0.0000     0.0000     0.0000 c3         1 TMO       0.123100
      2 NAC          1.4690     0.0000     0.0000 n4         1 TMO      -0.288600
      3 CAD          1.9580     0.0000     1.3850 c3         1 TMO       0.123100
      4 CAB          1.9600    -1.2000    -0.6920 c3         1 TMO       0.123100
      5 OAE          1.9570     1.1940    -0.6900 o          1 TMO      -0.635000
      6 HAA         -0.3610    -0.0000    -1.0210 hx         1 TMO       0.061367
      7 HAAA        -0.3610     0.8850     0.5110 hx         1 TMO       0.061367
      8 HAAB        -0.3610    -0.8840     0.5110 hx         1 TMO       0.061367
      9 HAD          3.0420    -0.0000     1.3860 hx         1 TMO       0.061367
     10 HADA         1.5970     0.8850     1.8960 hx         1 TMO       0.061367
     11 HADB         1.5970    -0.8840     1.8960 hx         1 TMO       0.061367
     12 HAB          1.5990    -1.2000    -1.7140 hx         1 TMO       0.061367
     13 HABA         3.0430    -1.2000    -0.6920 hx         1 TMO       0.061367
     14 HABB         1.5980    -2.0850    -0.1820 hx         1 TMO       0.061367
@<TRIPOS>BOND
     1     1     2 1
     2     1     6 1
     3     1     7 1
     4     1     8 1
     5     2     3 1
     6     2     4 1
     7     2     5 1
     8     3     9 1
     9     3    10 1
    10     3    11 1
    11     4    12 1
    12     4    13 1
    13     4    14 1
@<TRIPOS>SUBSTRUCTURE
     1 TMO         1 TEMP              0 ****  ****    0 ROOT
