@<TRIPOS>MOLECULE
molecule
   34    35     1     0     0
SMALL
bcc


@<TRIPOS>ATOM
      1 P            0.0000     0.0000     0.0000 p5         1 TMP       1.150900
      2 O1P          1.4800     0.0000     0.0000 o          1 TMP      -0.908833
      3 O2P         -0.5380     0.0000     1.5170 o          1 TMP      -0.908833
      4 O3P         -0.5360    -1.3140    -0.7610 o          1 TMP      -0.908833
      5 O5'         -0.5370     1.3150    -0.7590 os         1 TMP      -0.533200
      6 C5'          0.0660     1.3200    -2.0550 c3         1 TMP       0.166400
      7 C4'         -0.4050     2.5500    -2.8320 c3         1 TMP       0.142100
      8 O4'          0.1740     3.7560    -2.2830 os         1 TMP      -0.358600
      9 C3'          0.1330     2.5170    -4.2850 c3         1 TMP       0.111100
     10 O3'         -0.7370     1.7650    -5.1340 oh         1 TMP      -0.597800
     11 C2'          0.1210     4.0160    -4.6700 c3         1 TMP      -0.159400
     12 C1'          0.1190     4.7530    -3.3170 c3         1 TMP       0.305500
     13 N1           1.2880     5.6320    -3.2250 n          1 TMP      -0.354000
     14 C2           2.5230     5.0970    -3.2090 c          1 TMP       0.799500
     15 O2           2.6550     3.8900    -3.2700 o          1 TMP      -0.592500
     16 N3           3.6140     5.8810    -3.1260 ns         1 TMP      -0.563500
     17 C4           3.4850     7.2210    -3.0620 c          1 TMP       0.719700
     18 O4           4.4720     7.9300    -2.9870 o          1 TMP      -0.664500
     19 C5           2.1920     7.7960    -3.0730 cc         1 TMP      -0.323400
     20 C5M          2.0200     9.2910    -2.9980 c3         1 TMP      -0.002900
     21 C6           1.1140     6.9870    -3.1570 cd         1 TMP       0.063600
     22 H5'1         1.1440     1.3490    -1.9510 h1         1 TMP       0.061700
     23 H5'2        -0.2220     0.4230    -2.5900 h1         1 TMP       0.061700
     24 H4'         -1.4860     2.6170    -2.8320 h1         1 TMP       0.058700
     25 H3'          1.1420     2.1230    -4.3110 h1         1 TMP       0.078700
     26 HO3'        -0.2330     1.3530    -5.8160 ho         1 TMP       0.390000
     27 H2'1         1.0100     4.2680    -5.2350 hc         1 TMP       0.047700
     28 H2'2        -0.7740     4.2550    -5.2310 hc         1 TMP       0.047700
     29 H1'         -0.7910     5.3320    -3.2180 h2         1 TMP       0.053700
     30 HN3          4.5250     5.4670    -3.1150 hn         1 TMP       0.357500
     31 H51          0.9650     9.5350    -3.0140 hc         1 TMP       0.035033
     32 H52          2.4620     9.6600    -2.0810 hc         1 TMP       0.035033
     33 H53          2.5100     9.7540    -3.8460 hc         1 TMP       0.035033
     34 H6           0.1160     7.4090    -3.1670 h4         1 TMP       0.155000
@<TRIPOS>BOND
     1     1     2 1
     2     1     3 1
     3     1     4 1
     4     1     5 1
     5     5     6 1
     6     6     7 1
     7     6    22 1
     8     6    23 1
     9     7     8 1
    10     7     9 1
    11     7    24 1
    12     8    12 1
    13     9    10 1
    14     9    11 1
    15     9    25 1
    16    10    26 1
    17    11    12 1
    18    11    27 1
    19    11    28 1
    20    12    13 1
    21    12    29 1
    22    13    14 1
    23    13    21 1
    24    14    15 2
    25    14    16 1
    26    16    17 1
    27    16    30 1
    28    17    18 2
    29    17    19 1
    30    19    20 1
    31    19    21 2
    32    20    31 1
    33    20    32 1
    34    20    33 1
    35    21    34 1
@<TRIPOS>SUBSTRUCTURE
     1 TMP         1 TEMP              0 ****  ****    0 ROOT
