@<TRIPOS>MOLECULE
TMQ
   51    53     1     0     0
SMALL
bcc


@<TRIPOS>ATOM
      1 N1           0.0000     0.0000     0.0000 na         1 TMQ       0.273100
      2 C2           1.3190     0.0000     0.0000 ca         1 TMQ       0.328000
      3 N3           2.0400     0.0000     1.1180 nb         1 TMQ      -0.670000
      4 C4           1.4630    -0.0010     2.3110 ca         1 TMQ       0.698200
      5 C3A         -0.6780    -0.0010     1.1580 ca         1 TMQ      -0.130300
      6 C4A          0.0480    -0.0010     2.3730 ca         1 TMQ      -0.232300
      7 C5          -0.6410     0.0040     3.5910 ca         1 TMQ       0.028700
      8 C6          -2.0050    -0.0010     3.5920 ca         1 TMQ      -0.109300
      9 C7          -2.7210    -0.0000     2.3980 ca         1 TMQ       0.030000
     10 C8          -2.0790    -0.0000     1.1950 ca         1 TMQ      -0.143000
     11 C9          -2.7480    -0.0020     4.9040 c3         1 TMQ       0.220100
     12 N10         -2.7790     1.3580     5.4470 nu         1 TMQ      -0.448600
     13 C11         -3.4180     1.6090     6.6660 ca         1 TMQ       0.121600
     14 C12         -3.4480     2.8990     7.1820 ca         1 TMQ      -0.331500
     15 C13         -4.0790     3.1480     8.3900 ca         1 TMQ       0.194600
     16 C14         -4.6800     2.1070     9.0870 ca         1 TMQ      -0.004900
     17 C15         -4.6550     0.8180     8.5680 ca         1 TMQ       0.194600
     18 C16         -4.0220     0.5700     7.3600 ca         1 TMQ      -0.331500
     19 C17          0.1190     0.0090     4.8920 c3         1 TMQ       0.018200
     20 O18         -4.1090     4.4110     8.8940 os         1 TMQ      -0.255900
     21 O19         -5.3010     2.3510    10.2740 os         1 TMQ      -0.280900
     22 O20         -5.2460    -0.2010     9.2480 os         1 TMQ      -0.255900
     23 C21         -3.4130     5.2420     7.9640 c3         1 TMQ       0.214200
     24 C22         -4.3190     2.1810    11.2980 c3         1 TMQ       0.230700
     25 C23         -5.0480    -1.3840     8.4730 c3         1 TMQ       0.214200
     26 N24          1.9810     0.0020    -1.2150 nv         1 TMQ       0.011100
     27 N25          2.2220    -0.0010     3.4620 nv         1 TMQ      -0.665500
     28 HN          -0.4980     0.0000    -0.8680 hn         1 TMQ       0.143700
     29 H7          -3.8040    -0.0040     2.4250 ha         1 TMQ       0.132000
     30 H8          -2.6490     0.0000     0.2740 ha         1 TMQ       0.132000
     31 H91         -2.2450    -0.6590     5.6030 h1         1 TMQ       0.030700
     32 H92         -3.7610    -0.3510     4.7450 h1         1 TMQ       0.030700
     33 HN1         -2.3760     2.1130     4.9290 hn         1 TMQ       0.292800
     34 H12         -2.9790     3.7100     6.6380 ha         1 TMQ       0.141500
     35 H16         -4.0020    -0.4350     6.9560 ha         1 TMQ       0.141500
     36 H171        -0.5810     0.0340     5.7190 hc         1 TMQ       0.038033
     37 H172         0.7580     0.8830     4.9340 hc         1 TMQ       0.038033
     38 H173         0.7260    -0.8850     4.9600 hc         1 TMQ       0.038033
     39 H211        -2.3940     4.8910     7.8580 h1         1 TMQ       0.002033
     40 H212        -3.4070     6.2630     8.3260 h1         1 TMQ       0.002033
     41 H213        -3.9110     5.2030     7.0030 h1         1 TMQ       0.002033
     42 H221        -3.4210     2.7250    11.0310 h1         1 TMQ      -0.005967
     43 H222        -4.7060     2.5620    12.2360 h1         1 TMQ      -0.005967
     44 H223        -4.0860     1.1290    11.4050 h1         1 TMQ      -0.005967
     45 H231        -3.9860    -1.5660     8.3570 h1         1 TMQ       0.002033
     46 H232        -5.5000    -1.2570     7.4970 h1         1 TMQ       0.002033
     47 H233        -5.5060    -2.2270     8.9760 h1         1 TMQ       0.002033
     48 HN21         1.4600     0.0020    -2.0690 hn         1 TMQ       0.145700
     49 HN22         2.9820    -0.0000    -1.2400 hn         1 TMQ       0.145700
     50 HN51         2.4830     0.8660     3.8890 hn         1 TMQ       0.318800
     51 HN52         2.5650    -0.8640     3.8340 hn         1 TMQ       0.318800
@<TRIPOS>BOND
     1     1     2 1   
     2     1     5 2   
     3     1    28 1   
     4     2     3 ar  
     5     2    26 1   
     6     3     4 ar  
     7     4     6 ar  
     8     4    27 1   
     9     5     6 ar  
    10     5    10 ar  
    11     6     7 ar  
    12     7     8 ar  
    13     7    19 1   
    14     8     9 ar  
    15     8    11 1   
    16     9    10 ar  
    17     9    29 1   
    18    10    30 1   
    19    11    12 1   
    20    11    31 1   
    21    11    32 1   
    22    12    13 1   
    23    12    33 1   
    24    13    14 ar  
    25    13    18 ar  
    26    14    15 ar  
    27    14    34 1   
    28    15    16 ar  
    29    15    20 1   
    30    16    17 ar  
    31    16    21 1   
    32    17    18 ar  
    33    17    22 1   
    34    18    35 1   
    35    19    36 1   
    36    19    37 1   
    37    19    38 1   
    38    20    23 1   
    39    21    24 1   
    40    22    25 1   
    41    23    39 1   
    42    23    40 1   
    43    23    41 1   
    44    24    42 1   
    45    24    43 1   
    46    24    44 1   
    47    25    45 1   
    48    25    46 1   
    49    25    47 1   
    50    26    48 1   
    51    26    49 1   
    52    27    50 1   
    53    27    51 1   
@<TRIPOS>SUBSTRUCTURE
     1 TMQ         1 TEMP              0 ****  ****    0 ROOT
