@<TRIPOS>MOLECULE
molecule
   52    53     1     0     0
SMALL
bcc


@<TRIPOS>ATOM
      1 C1           0.0000     0.0000     0.0000 ce         1 TMS      -0.109200
      2 O20          5.5270     0.0020    -2.4780 os         1 TMS      -0.278900
      3 C20          5.9420    -0.0000    -1.1110 c3         1 TMS       0.101700
      4 O21          4.1500     0.0090    -4.8590 os         1 TMS      -0.296900
      5 C21          4.3510     1.3760    -5.2170 c3         1 TMS       0.115700
      6 O22          1.4010     0.0050    -4.8610 os         1 TMS      -0.278900
      7 C22          0.0090     0.0050    -4.5380 c3         1 TMS       0.101700
      8 C2           1.3440     0.0000     0.0000 cf         1 TMS      -0.103200
      9 C3          -0.7360     0.0000     1.2740 ca         1 TMS      -0.034800
     10 C4           2.0800     0.0000    -1.2750 ca         1 TMS       0.006200
     11 C5          -0.0370    -0.0070     2.4860 ca         1 TMS      -0.130000
     12 C6          -2.1350     0.0000     1.2740 ca         1 TMS      -0.130000
     13 C7           3.4780    -0.0000    -1.2770 ca         1 TMS      -0.241000
     14 C8           1.3840     0.0020    -2.4870 ca         1 TMS      -0.241000
     15 C9          -0.7200    -0.0020     3.6680 ca         1 TMS      -0.084000
     16 C10         -2.8170    -0.0020     2.4570 ca         1 TMS      -0.084000
     17 C11          4.1670     0.0010    -2.4770 ca         1 TMS       0.135100
     18 C12          2.0780     0.0030    -3.6820 ca         1 TMS       0.135100
     19 C13         -2.1180    -0.0030     3.6680 ca         1 TMS      -0.146600
     20 C14          3.4690     0.0080    -3.6810 ca         1 TMS       0.037100
     21 C15         -2.8560    -0.0040     4.9460 c          1 TMS       0.673700
     22 N1          -2.1820    -0.0060     6.1130 ns         1 TMS      -0.584900
     23 C16         -2.9150    -0.0070     7.3820 c3         1 TMS       0.113000
     24 O1          -4.0710    -0.0040     4.9460 o          1 TMS      -0.608100
     25 C17         -1.9210    -0.0080     8.5440 c3         1 TMS      -0.102400
     26 C18         -2.6870    -0.0100     9.8690 c3         1 TMS       0.145400
     27 O2          -1.7580    -0.0110    10.9550 oh         1 TMS      -0.611800
     28 HE2         -0.5420     0.0000    -0.9380 ha         1 TMS       0.135000
     29 HGA          7.0240     0.0170    -1.0620 h1         1 TMS       0.045200
     30 HGB          5.5730    -0.8940    -0.6230 h1         1 TMS       0.045200
     31 HGC          5.5440     0.8750    -0.6110 h1         1 TMS       0.045200
     32 H1A          5.0940     1.4380    -6.0030 h1         1 TMS       0.036700
     33 H1B          4.6950     1.9300    -4.3520 h1         1 TMS       0.036700
     34 H1C          3.4180     1.7990    -5.5680 h1         1 TMS       0.036700
     35 HFA         -0.2300    -0.8850    -3.9670 h1         1 TMS       0.045200
     36 HFB         -0.5740     0.0150    -5.4510 h1         1 TMS       0.045200
     37 HFC         -0.2260     0.8840    -3.9500 h1         1 TMS       0.045200
     38 HE3          1.8860     0.0000     0.9380 ha         1 TMS       0.135000
     39 HC4          1.0470    -0.0060     2.4870 ha         1 TMS       0.136000
     40 HC5         -2.6770     0.0010     0.3360 ha         1 TMS       0.136000
     41 HB6          4.0220    -0.0200    -0.3400 ha         1 TMS       0.148000
     42 HB7          0.3010    -0.0360    -2.4890 ha         1 TMS       0.148000
     43 HD8         -0.1790    -0.0050     4.6060 ha         1 TMS       0.142000
     44 HD9         -3.9010    -0.0020     2.4570 ha         1 TMS       0.142000
     45 H1          -1.1810     0.0160     6.1130 hn         1 TMS       0.316500
     46 HJB         -3.5380    -0.8910     7.4380 h1         1 TMS       0.054200
     47 HJA         -3.5380     0.8780     7.4400 h1         1 TMS       0.054200
     48 HKA         -1.2980    -0.8920     8.4860 hc         1 TMS       0.057700
     49 HKB         -1.2990     0.8770     8.4880 hc         1 TMS       0.057700
     50 HLB         -3.3090    -0.8950     9.9250 h1         1 TMS       0.024700
     51 HLA         -3.3090     0.8740     9.9280 h1         1 TMS       0.024700
     52 HO2         -2.2220    -0.1370    11.7660 ho         1 TMS       0.406000
@<TRIPOS>BOND
     1     1     8 2
     2     1     9 1
     3     1    28 1
     4     2     3 1
     5     2    17 1
     6     3    29 1
     7     3    30 1
     8     3    31 1
     9     4     5 1
    10     4    20 1
    11     5    32 1
    12     5    33 1
    13     5    34 1
    14     6     7 1
    15     6    18 1
    16     7    35 1
    17     7    36 1
    18     7    37 1
    19     8    10 1
    20     8    38 1
    21     9    11 ar
    22     9    12 ar
    23    10    13 ar
    24    10    14 ar
    25    11    15 ar
    26    11    39 1
    27    12    16 ar
    28    12    40 1
    29    13    17 ar
    30    13    41 1
    31    14    18 ar
    32    14    42 1
    33    15    19 ar
    34    15    43 1
    35    16    19 ar
    36    16    44 1
    37    17    20 ar
    38    18    20 ar
    39    19    21 1
    40    21    22 1
    41    21    24 2
    42    22    23 1
    43    22    45 1
    44    23    25 1
    45    23    46 1
    46    23    47 1
    47    25    26 1
    48    25    48 1
    49    25    49 1
    50    26    27 1
    51    26    50 1
    52    26    51 1
    53    27    52 1
@<TRIPOS>SUBSTRUCTURE
     1 TMS         1 TEMP              0 ****  ****    0 ROOT
