@<TRIPOS>MOLECULE
TMS
   52    55     1     0     0
SMALL
bcc


@<TRIPOS>ATOM
      1 C1           0.0000     0.0000     0.0000 c2         1 TMS      -0.136000
      2 O20          5.5270     0.0020    -2.4780 os         1 TMS      -0.148000
      3 C20          5.9420    -0.0000    -1.1110 c3         1 TMS       0.021500
      4 O21          4.1500     0.0090    -4.8590 os         1 TMS      -0.171000
      5 C21          4.3510     1.3760    -5.2170 c3         1 TMS       0.041000
      6 O22          1.4010     0.0050    -4.8610 os         1 TMS      -0.148000
      7 C22          0.0090     0.0050    -4.5380 c3         1 TMS       0.021500
      8 C2           1.3440     0.0000     0.0000 c2         1 TMS      -0.143000
      9 C3          -0.7360     0.0000     1.2740 c3         1 TMS      -0.042000
     10 C4           2.0800     0.0000    -1.2750 c3         1 TMS       0.008000
     11 C5          -0.0370    -0.0070     2.4860 c2         1 TMS      -0.131000
     12 C6          -2.1350     0.0000     1.2740 c2         1 TMS      -0.131000
     13 C7           3.4780    -0.0000    -1.2770 c2         1 TMS      -0.269000
     14 C8           1.3840     0.0020    -2.4870 c2         1 TMS      -0.269000
     15 C9          -0.7200    -0.0020     3.6680 c2         1 TMS      -0.045000
     16 C10         -2.8170    -0.0020     2.4570 c2         1 TMS      -0.045000
     17 C11          4.1670     0.0010    -2.4770 c2         1 TMS       0.111000
     18 C12          2.0780     0.0030    -3.6820 c2         1 TMS       0.111000
     19 C13         -2.1180    -0.0030     3.6680 c2         1 TMS      -0.150000
     20 C14          3.4690     0.0080    -3.6810 c2         1 TMS      -0.019000
     21 C15         -2.8560    -0.0040     4.9460 c2         1 TMS       0.272000
     22 N1          -2.1820    -0.0060     6.1130 ns         1 TMS      -0.011000
     23 C16         -2.9150    -0.0070     7.3820 c3         1 TMS      -0.062000
     24 O1          -4.0710    -0.0040     4.9460 o          1 TMS      -0.412000
     25 C17         -1.9210    -0.0080     8.5440 c3         1 TMS      -0.132000
     26 C18         -2.6870    -0.0100     9.8690 c3         1 TMS       0.083000
     27 O2          -1.7580    -0.0110    10.9550 oh         1 TMS      -0.323000
     28 HE2         -0.1460     0.8750     0.6220 DU         1 TMS       0.178000
     29 HGA          5.5430     0.8740    -0.6110 h1         1 TMS       0.044167
     30 HGB          5.5750    -0.8950    -0.6230 h1         1 TMS       0.044167
     31 HGC          7.0240     0.0190    -1.0620 h1         1 TMS       0.044167
     32 H1A          3.6140     1.9930    -4.7180 h1         1 TMS       0.033667
     33 H1B          5.3450     1.6860    -4.9160 h1         1 TMS       0.033667
     34 H1C          4.2480     1.4870    -6.2900 h1         1 TMS       0.033667
     35 HFA         -0.2220    -0.8640    -3.9330 h1         1 TMS       0.044167
     36 HFB         -0.5740    -0.0260    -5.4510 h1         1 TMS       0.044167
     37 HFC         -0.2340     0.9040    -3.9850 h1         1 TMS       0.044167
     38 HE3          1.4910    -0.8750    -0.6220 DU         1 TMS       0.186000
     39 HC4          1.0470    -0.0060     2.4870 ha         1 TMS       0.122500
     40 HC5         -2.6770     0.0010     0.3360 ha         1 TMS       0.122500
     41 HB6          4.0210    -0.0570    -0.3410 ha         1 TMS       0.154500
     42 HB7          0.3010     0.0360    -2.4890 ha         1 TMS       0.154500
     43 HD8         -0.1790    -0.0050     4.6060 ha         1 TMS       0.116500
     44 HD9         -3.9010    -0.0020     2.4570 ha         1 TMS       0.116500
     45 H1          -1.1820     0.0220     6.1130 hn         1 TMS       0.094000
     46 HJB         -3.5380     0.8780     7.4400 h1         1 TMS       0.066000
     47 HJA         -3.5380    -0.8910     7.4380 h1         1 TMS       0.066000
     48 HKA         -1.2990     0.8770     8.4880 hc         1 TMS       0.064500
     49 HKB         -1.2980    -0.8920     8.4860 hc         1 TMS       0.064500
     50 HLB         -3.3090    -0.8950     9.9250 h1         1 TMS       0.027000
     51 HLA         -3.3090     0.8740     9.9280 h1         1 TMS       0.027000
     52 HO2         -2.2290    -0.0250    11.7720 ho         1 TMS       0.192000
@<TRIPOS>BOND
     1     1     8 1   
     2     1     9 1   
     3     1    28 1   
     4     2     3 1   
     5     2    17 1   
     6     3    29 1   
     7     3    30 1   
     8     3    31 1   
     9     4     5 1   
    10     4    20 1   
    11     5    32 1   
    12     5    33 1   
    13     5    34 1   
    14     6     7 1   
    15     6    18 1   
    16     7    35 1   
    17     7    36 1   
    18     7    37 1   
    19     8    10 1   
    20     8    38 1   
    21     9    11 1   
    22     9    12 1   
    23     9    28 1   
    24    10    13 1   
    25    10    14 1   
    26    10    38 1   
    27    11    15 1   
    28    11    39 1   
    29    12    16 1   
    30    12    40 1   
    31    13    17 1   
    32    13    41 1   
    33    14    18 1   
    34    14    42 1   
    35    15    19 1   
    36    15    43 1   
    37    16    19 1   
    38    16    44 1   
    39    17    20 1   
    40    18    20 1   
    41    19    21 1   
    42    21    22 1   
    43    21    24 1   
    44    22    23 1   
    45    22    45 1   
    46    23    25 1   
    47    23    46 1   
    48    23    47 1   
    49    25    26 1   
    50    25    48 1   
    51    25    49 1   
    52    26    27 1   
    53    26    50 1   
    54    26    51 1   
    55    27    52 1   
@<TRIPOS>SUBSTRUCTURE
     1 TMS         1 TEMP              0 ****  ****    0 ROOT
