@<TRIPOS>MOLECULE
TMT
   18    18     1     0     0
SMALL
bcc


@<TRIPOS>ATOM
      1 S1          0.0250    0.0180   -0.0380 ss        1 TMT      0.353200
      2 C2          1.6900    0.0190    0.0410 cc        1 TMT     -0.055700
      3 N3          2.1570    0.0010    1.3320 na        1 TMT      0.009900
      4 C4          1.1000   -0.0110    2.2560 cc        1 TMT     -0.004600
      5 C5         -0.1310   -0.0040    1.6080 cd        1 TMT     -0.237100
      6 C6          2.5580    0.0360   -1.1560 c3        1 TMT     -0.070800
      7 C7          3.5470    0.0150    1.7120 c3        1 TMT     -0.015400
      8 C8          1.3150   -0.0330    3.7180 c3        1 TMT     -0.063800
      9 H5         -1.0890   -0.0110    2.1410 h4        1 TMT      0.233000
     10 H61         3.1870   -0.8920   -1.2050 hc        1 TMT      0.096700
     11 H62         1.9330    0.0890   -2.0840 hc        1 TMT      0.096700
     12 H63         3.2440    0.9240   -1.1400 hc        1 TMT      0.096700
     13 H71         4.1790   -0.3620    0.8630 h1        1 TMT      0.097033
     14 H72         3.6920   -0.6440    2.6110 h1        1 TMT      0.097033
     15 H73         3.8530    1.0680    1.9680 h1        1 TMT      0.097033
     16 H81         0.3320    0.0820    4.2420 hc        1 TMT      0.090700
     17 H82         1.7750   -1.0060    4.0320 hc        1 TMT      0.090700
     18 H83         1.9910    0.8010    4.0380 hc        1 TMT      0.090700
@<TRIPOS>BOND
     1    1    2 1   
     2    1    5 1   
     3    2    3 2   
     4    2    6 1   
     5    3    4 1   
     6    3    7 1   
     7    4    5 2   
     8    4    8 1   
     9    5    9 1   
    10    6   10 1   
    11    6   11 1   
    12    6   12 1   
    13    7   13 1   
    14    7   14 1   
    15    7   15 1   
    16    8   16 1   
    17    8   17 1   
    18    8   18 1   
@<TRIPOS>SUBSTRUCTURE
     1 TMT         1 TEMP              0 ****  ****    0 ROOT
