@<TRIPOS>MOLECULE
molecule
   18    18     1     0     0
SMALL
bcc


@<TRIPOS>ATOM
      1 S1           0.0000     0.0000     0.0000 ss         1 TMT       0.084200
      2 C2           1.7370     0.0000     0.0000 cc         1 TMT       0.050300
      3 N3           2.0140     0.0000     1.2830 na         1 TMT       0.031900
      4 C4           1.0610     0.0100     2.1910 cc         1 TMT      -0.099600
      5 C5          -0.2310     0.0090     1.7720 cd         1 TMT      -0.033100
      6 C6           2.6830    -0.0050    -1.1730 c3         1 TMT      -0.029800
      7 C7           3.4140     0.0020     1.7140 c3         1 TMT      -0.021400
      8 C8           1.3950     0.0170     3.6610 c3         1 TMT      -0.040800
      9 H5          -1.1460     0.0140     2.3510 h4         1 TMT       0.247000
     10 H61          3.3010    -0.8940    -1.1350 hc         1 TMT       0.096367
     11 H62          2.1150     0.0000    -2.0950 hc         1 TMT       0.096367
     12 H63          3.3140     0.8750    -1.1320 hc         1 TMT       0.096367
     13 H71          3.6160     0.9040     2.2790 h1         1 TMT       0.093367
     14 H72          4.0600    -0.0320     0.8450 h1         1 TMT       0.093367
     15 H73          3.6010    -0.8640     2.3380 h1         1 TMT       0.093367
     16 H81          1.9850     0.8950     3.8930 hc         1 TMT       0.081033
     17 H82          0.4790     0.0330     4.2400 hc         1 TMT       0.081033
     18 H83          1.9620    -0.8730     3.9060 hc         1 TMT       0.081033
@<TRIPOS>BOND
     1     1     2 1
     2     1     5 1
     3     2     3 2
     4     2     6 1
     5     3     4 1
     6     3     7 1
     7     4     5 2
     8     4     8 1
     9     5     9 1
    10     6    10 1
    11     6    11 1
    12     6    12 1
    13     7    13 1
    14     7    14 1
    15     7    15 1
    16     8    16 1
    17     8    17 1
    18     8    18 1
@<TRIPOS>SUBSTRUCTURE
     1 TMT         1 TEMP              0 ****  ****    0 ROOT
