@<TRIPOS>MOLECULE
molecule
   33    34     1     0     0
SMALL
bcc


@<TRIPOS>ATOM
      1 C1           0.0000     0.0000     0.0000 cc         1 TMU       0.657300
      2 S2           1.7370     0.0000     0.0000 ss         1 TMU      -0.175300
      3 N3          -0.2770     0.0050     1.2890 nd         1 TMU      -0.732000
      4 N4          -0.8730     0.0000    -1.0810 ns         1 TMU      -0.523400
      5 C5           1.9690     0.0000     1.7710 cc         1 TMU      -0.258600
      6 C6           0.6820     0.0000     2.1950 cd         1 TMU       0.486200
      7 C7          -2.2050    -0.0000    -0.8720 c          1 TMU       0.766100
      8 N8           3.2230     0.0010     2.5590 no         1 TMU       0.353200
      9 N9          -3.0510    -0.0000    -1.9210 ns         1 TMU      -0.594900
     10 O10         -2.6410    -0.0000     0.2630 o          1 TMU      -0.575100
     11 O11          3.1770    -0.0000     3.7760 o          1 TMU      -0.195000
     12 O12          4.3000     0.0010     1.9910 o          1 TMU      -0.195000
     13 C13         -4.4990    -0.0010    -1.6930 c3         1 TMU       0.184300
     14 C14         -5.2150    -0.0000    -3.0180 ca         1 TMU      -0.165300
     15 C15         -5.5430    -1.1980    -3.6260 ca         1 TMU      -0.073500
     16 C16         -5.5440     1.1980    -3.6260 ca         1 TMU      -0.073500
     17 C17         -6.2010    -1.2010    -4.8410 ca         1 TMU      -0.194500
     18 C18         -6.1960     1.2000    -4.8440 ca         1 TMU      -0.194500
     19 C19         -6.5310    -0.0010    -5.4520 ca         1 TMU       0.133100
     20 O20         -7.1780    -0.0000    -6.6470 os         1 TMU      -0.293900
     21 C21         -7.3750     1.3670    -7.0110 c3         1 TMU       0.104700
     22 HN4         -0.5130    -0.0200    -2.0150 hn         1 TMU       0.339500
     23 H6           0.4470     0.0020     3.2520 h4         1 TMU       0.069100
     24 HN9         -2.6910     0.0010    -2.8550 hn         1 TMU       0.312500
     25 H131        -4.7760    -0.8860    -1.1340 h1         1 TMU       0.063200
     26 H132        -4.7770     0.8830    -1.1320 h1         1 TMU       0.063200
     27 H15         -5.2850    -2.1360    -3.1480 ha         1 TMU       0.138500
     28 H16         -5.2820     2.1350    -3.1500 ha         1 TMU       0.138500
     29 H17         -6.4590    -2.1400    -5.3150 ha         1 TMU       0.148000
     30 H18         -6.4530     2.1390    -5.3190 ha         1 TMU       0.148000
     31 H211        -7.8920     1.4170    -7.9610 h1         1 TMU       0.046033
     32 H212        -6.4140     1.8600    -7.0960 h1         1 TMU       0.046033
     33 H213        -7.9680     1.8610    -6.2500 h1         1 TMU       0.046033
@<TRIPOS>BOND
     1     1     2 1
     2     1     3 2
     3     1     4 1
     4     2     5 1
     5     3     6 1
     6     4     7 1
     7     4    22 1
     8     5     6 2
     9     5     8 1
    10     6    23 1
    11     7     9 1
    12     7    10 2
    13     8    11 1
    14     8    12 1
    15     9    13 1
    16     9    24 1
    17    13    14 1
    18    13    25 1
    19    13    26 1
    20    14    15 ar
    21    14    16 ar
    22    15    17 ar
    23    15    27 1
    24    16    18 ar
    25    16    28 1
    26    17    19 ar
    27    17    29 1
    28    18    19 ar
    29    18    30 1
    30    19    20 1
    31    20    21 1
    32    21    31 1
    33    21    32 1
    34    21    33 1
@<TRIPOS>SUBSTRUCTURE
     1 TMU         1 TEMP              0 ****  ****    0 ROOT
