@<TRIPOS>MOLECULE
molecule
   59    59     1     0     0
SMALL
bcc


@<TRIPOS>ATOM
      1 C1           0.0000     0.0000     0.0000 ca         1 TMY      -0.057300
      2 C2           1.3810     0.0000     0.0000 ca         1 TMY       0.127100
      3 C3           2.0790     0.0000     1.2050 ca         1 TMY       0.092100
      4 C4           1.3880     0.0010     2.4150 ca         1 TMY       0.119100
      5 C5           0.0070     0.0020     2.4230 ca         1 TMY      -0.184000
      6 C6          -0.6980     0.0020     1.2140 ca         1 TMY      -0.124600
      7 C13         -0.7550     0.0060    -1.3050 c3         1 TMY      -0.084100
      8 C14         -1.1090    -1.4080    -1.6860 c          1 TMY       0.651100
      9 O15         -0.7830    -2.3270    -0.9720 o          1 TMY      -0.561000
     10 O16         -1.7880    -1.6480    -2.8190 os         1 TMY      -0.427900
     11 C17         -2.0950    -3.0340    -3.1220 c3         1 TMY       0.147400
     12 C18         -2.8660    -3.1080    -4.4430 c3         1 TMY      -0.096100
     13 C19         -2.1670     0.0030     1.2180 c          1 TMY       0.584700
     14 C20         -2.9160     0.1410     2.5180 c3         1 TMY      -0.177400
     15 C21         -4.4210     0.1120     2.2450 c3         1 TMY      -0.073400
     16 C22         -5.1830     0.2510     3.5650 c3         1 TMY      -0.084400
     17 C23         -6.6880     0.2230     3.2910 c3         1 TMY      -0.080400
     18 C24         -7.4480     0.3630     4.6110 c3         1 TMY      -0.082400
     19 C25         -8.9530     0.3350     4.3380 c3         1 TMY      -0.084400
     20 C26         -9.7150     0.4750     5.6580 c3         1 TMY      -0.092100
     21 O27         -2.7760    -0.1070     0.1760 o          1 TMY      -0.533100
     22 O28          2.0600    -0.0010    -1.1780 os         1 TMY      -0.351900
     23 O29          3.4380    -0.0010     1.2020 os         1 TMY      -0.335900
     24 O30          2.0750     0.0010     3.5890 os         1 TMY      -0.312900
     25 C31          2.4640    -1.2720    -1.6930 c3         1 TMY       0.135700
     26 C32          4.0880     1.2680     1.2800 c3         1 TMY       0.140700
     27 C33          1.3030     0.0020     4.7910 c3         1 TMY       0.125700
     28 H5          -0.5300     0.0030     3.3640 ha         1 TMY       0.144000
     29 H13         -1.6610     0.5880    -1.1950 hc         1 TMY       0.099200
     30 H17         -1.1730    -3.5960    -3.2110 h1         1 TMY       0.047200
     31 H17A        -2.6990    -3.4530    -2.3270 h1         1 TMY       0.047200
     32 H18         -2.2840    -2.6400    -5.2280 hc         1 TMY       0.046367
     33 H18A        -3.8120    -2.5910    -4.3370 hc         1 TMY       0.046367
     34 H18B        -3.0480    -4.1450    -4.6970 hc         1 TMY       0.046367
     35 H20         -2.6530     1.0800     2.9890 hc         1 TMY       0.065200
     36 H20A        -2.6520    -0.6790     3.1760 hc         1 TMY       0.065200
     37 H21         -4.6840    -0.8280     1.7740 hc         1 TMY       0.056200
     38 H21A        -4.6850     0.9310     1.5880 hc         1 TMY       0.056200
     39 H22         -4.9190     1.1900     4.0360 hc         1 TMY       0.039200
     40 H22A        -4.9200    -0.5690     4.2220 hc         1 TMY       0.039200
     41 H23         -6.9510     1.0430     2.6340 hc         1 TMY       0.044200
     42 H23A        -6.9520    -0.7160     2.8200 hc         1 TMY       0.044200
     43 H24         -7.1850    -0.4580     5.2680 hc         1 TMY       0.040700
     44 H24A        -7.1840     1.3020     5.0820 hc         1 TMY       0.040700
     45 H25         -9.2160     1.1550     3.6810 hc         1 TMY       0.040700
     46 H25A        -9.2170    -0.6040     3.8670 hc         1 TMY       0.040700
     47 H26        -10.7800     0.4540     5.4640 hc         1 TMY       0.032700
     48 H26A        -9.4520    -0.3450     6.3150 hc         1 TMY       0.032700
     49 H26B        -9.4510     1.4140     6.1290 hc         1 TMY       0.032700
     50 H31          2.0870    -1.3900    -2.7020 h1         1 TMY       0.043700
     51 H31A         2.0660    -2.0590    -1.0650 h1         1 TMY       0.043700
     52 H31B         3.5460    -1.3300    -1.7020 h1         1 TMY       0.043700
     53 H32          4.5330     1.3860     2.2610 h1         1 TMY       0.037700
     54 H32A         3.3630     2.0560     1.1150 h1         1 TMY       0.037700
     55 H32B         4.8620     1.3250     0.5240 h1         1 TMY       0.037700
     56 H33          1.9670     0.0120     5.6470 h1         1 TMY       0.042700
     57 H33A         0.6840    -0.8860     4.8240 h1         1 TMY       0.042700
     58 H33B         0.6720     0.8830     4.8140 h1         1 TMY       0.042700
     59 H13A        -0.1350     0.4440    -2.0780 hc         1 TMY       0.099200
@<TRIPOS>BOND
     1     1     2 ar
     2     1     6 ar
     3     1     7 1
     4     2     3 ar
     5     2    22 1
     6     3     4 ar
     7     3    23 1
     8     4     5 ar
     9     4    24 1
    10     5     6 ar
    11     6    13 1
    12     7     8 1
    13     8     9 2
    14     8    10 1
    15    10    11 1
    16    11    12 1
    17    13    14 1
    18    13    21 2
    19    14    15 1
    20    15    16 1
    21    16    17 1
    22    17    18 1
    23    18    19 1
    24    19    20 1
    25    22    25 1
    26    23    26 1
    27    24    27 1
    28     5    28 1
    29     7    29 1
    30    11    30 1
    31    11    31 1
    32    12    32 1
    33    12    33 1
    34    12    34 1
    35    14    35 1
    36    14    36 1
    37    15    37 1
    38    15    38 1
    39    16    39 1
    40    16    40 1
    41    17    41 1
    42    17    42 1
    43    18    43 1
    44    18    44 1
    45    19    45 1
    46    19    46 1
    47    20    47 1
    48    20    48 1
    49    20    49 1
    50    25    50 1
    51    25    51 1
    52    25    52 1
    53    26    53 1
    54    26    54 1
    55    26    55 1
    56    27    56 1
    57    27    57 1
    58    27    58 1
    59     7    59 1
@<TRIPOS>SUBSTRUCTURE
     1 TMY         1 TEMP              0 ****  ****    0 ROOT
