@<TRIPOS>MOLECULE
TMY
   59    59     1     0     0
SMALL
bcc


@<TRIPOS>ATOM
      1 C1         -0.1880   -0.1760    0.6420 ca        1 TMY     -0.092300
      2 C2          1.0910    0.3540    0.3690 ca        1 TMY      0.138100
      3 C3          2.1780    0.1000    1.2220 ca        1 TMY      0.059100
      4 C4          1.9750   -0.6840    2.3820 ca        1 TMY      0.120100
      5 C5          0.7040   -1.1880    2.6700 ca        1 TMY     -0.181000
      6 C6         -0.3680   -0.9250    1.8110 ca        1 TMY     -0.110600
      7 C13        -1.3090    0.0950   -0.2980 c3        1 TMY     -0.082100
      8 C14        -1.4350   -0.9680   -1.3530 c         1 TMY      0.640100
      9 O15        -0.5980   -1.3650   -2.1650 o         1 TMY     -0.543000
     10 O16        -2.6900   -1.5060   -1.3980 os        1 TMY     -0.442900
     11 C17        -2.9140   -2.5410   -2.3730 c3        1 TMY      0.139400
     12 C18        -4.3380   -3.0010   -2.1820 c3        1 TMY     -0.101100
     13 C19        -1.7000   -1.4670    2.1950 c         1 TMY      0.576700
     14 C20        -2.6530   -0.4630    2.7850 c3        1 TMY     -0.177400
     15 C21        -4.0870   -0.7430    2.3870 c3        1 TMY     -0.079400
     16 C22        -5.0380    0.2140    3.0720 c3        1 TMY     -0.078400
     17 C23        -6.4700   -0.0550    2.6630 c3        1 TMY     -0.079400
     18 C24        -7.4250    0.8980    3.3500 c3        1 TMY     -0.079400
     19 C25        -8.8580    0.6310    2.9410 c3        1 TMY     -0.080400
     20 C26        -9.8120    1.5780    3.6220 c3        1 TMY     -0.093100
     21 O27        -1.9740   -2.6640    2.0880 o         1 TMY     -0.507100
     22 O28         1.2350    1.2130   -0.7080 os        1 TMY     -0.346900
     23 O29         3.4380    0.5240    0.8420 os        1 TMY     -0.325900
     24 O30         3.0820   -0.8690    3.1830 os        1 TMY     -0.318900
     25 C31         1.9920    0.6620   -1.7940 c3        1 TMY      0.107700
     26 C32         3.9970    1.5290    1.6920 c3        1 TMY      0.116700
     27 C33         2.9440   -1.8190    4.2350 c3        1 TMY      0.110700
     28 H5          0.5350   -1.8060    3.5640 ha        1 TMY      0.149000
     29 H13        -2.2810    0.1740    0.2620 hc        1 TMY      0.094200
     30 H17        -2.7430   -2.1110   -3.3940 h1        1 TMY      0.052700
     31 H17A       -2.1780   -3.3680   -2.1940 h1        1 TMY      0.052700
     32 H18        -4.5600   -3.8100   -2.9180 hc        1 TMY      0.048033
     33 H18A       -5.0490   -2.1550   -2.3420 hc        1 TMY      0.048033
     34 H18B       -4.4870   -3.3950   -1.1490 hc        1 TMY      0.048033
     35 H20        -2.3610    0.5740    2.4750 hc        1 TMY      0.068200
     36 H20A       -2.5500   -0.5200    3.9030 hc        1 TMY      0.068200
     37 H21        -4.1910   -0.6510    1.2730 hc        1 TMY      0.057700
     38 H21A       -4.3460   -1.8020    2.6550 hc        1 TMY      0.057700
     39 H22        -4.7640    1.2700    2.8120 hc        1 TMY      0.039200
     40 H22A       -4.9390    0.1110    4.1860 hc        1 TMY      0.039200
     41 H23        -6.5690    0.0490    1.5500 hc        1 TMY      0.042200
     42 H23A       -6.7430   -1.1120    2.9220 hc        1 TMY      0.042200
     43 H24        -7.1520    1.9560    3.0920 hc        1 TMY      0.039700
     44 H24A       -7.3260    0.7940    4.4620 hc        1 TMY      0.039700
     45 H25        -9.1290   -0.4270    3.1990 hc        1 TMY      0.039200
     46 H25A       -8.9540    0.7350    1.8280 hc        1 TMY      0.039200
     47 H26        -9.5740    2.6370    3.3570 hc        1 TMY      0.033033
     48 H26A      -10.8620    1.3640    3.3070 hc        1 TMY      0.033033
     49 H26B       -9.7490    1.4720    4.7320 hc        1 TMY      0.033033
     50 H31         1.4520   -0.2170   -2.2230 h1        1 TMY      0.057033
     51 H31A        2.0370    1.5050   -2.5270 h1        1 TMY      0.057033
     52 H31B        3.0140    0.3770   -1.4470 h1        1 TMY      0.057033
     53 H32         3.3580    2.4440    1.6790 h1        1 TMY      0.046033
     54 H32A        4.1090    1.1400    2.7320 h1        1 TMY      0.046033
     55 H32B        4.9950    1.7320    1.2300 h1        1 TMY      0.046033
     56 H33         3.9770   -1.8820    4.6620 h1        1 TMY      0.048700
     57 H33A        2.6200   -2.8110    3.8370 h1        1 TMY      0.048700
     58 H33B        2.2220   -1.4480    5.0030 h1        1 TMY      0.048700
     59 H13A       -1.1300    1.0690   -0.8350 hc        1 TMY      0.094200
@<TRIPOS>BOND
     1    1    2 ar  
     2    1    6 ar  
     3    1    7 1   
     4    2    3 ar  
     5    2   22 1   
     6    3    4 ar  
     7    3   23 1   
     8    4    5 ar  
     9    4   24 1   
    10    5    6 ar  
    11    5   28 1   
    12    6   13 1   
    13    7    8 1   
    14    7   29 1   
    15    7   59 1   
    16    8    9 2   
    17    8   10 1   
    18   10   11 1   
    19   11   12 1   
    20   11   30 1   
    21   11   31 1   
    22   12   32 1   
    23   12   33 1   
    24   12   34 1   
    25   13   14 1   
    26   13   21 2   
    27   14   15 1   
    28   14   35 1   
    29   14   36 1   
    30   15   16 1   
    31   15   37 1   
    32   15   38 1   
    33   16   17 1   
    34   16   39 1   
    35   16   40 1   
    36   17   18 1   
    37   17   41 1   
    38   17   42 1   
    39   18   19 1   
    40   18   43 1   
    41   18   44 1   
    42   19   20 1   
    43   19   45 1   
    44   19   46 1   
    45   20   47 1   
    46   20   48 1   
    47   20   49 1   
    48   22   25 1   
    49   23   26 1   
    50   24   27 1   
    51   25   50 1   
    52   25   51 1   
    53   25   52 1   
    54   26   53 1   
    55   26   54 1   
    56   26   55 1   
    57   27   56 1   
    58   27   57 1   
    59   27   58 1   
@<TRIPOS>SUBSTRUCTURE
     1 TMY         1 TEMP              0 ****  ****    0 ROOT
