@<TRIPOS>MOLECULE
TMZ
   18    18     1     0     0
SMALL
bcc


@<TRIPOS>ATOM
      1 S1         -0.0890   -0.0020    0.0540 ss        1 TMZ      0.361200
      2 C2          1.5580   -0.0030    0.0810 cc        1 TMZ     -0.148400
      3 N3          2.0860   -0.0010    1.3380 na        1 TMZ      0.030900
      4 C4          1.0750    0.0010    2.3110 cc        1 TMZ     -0.030600
      5 C5         -0.1940    0.0010    1.7220 cd        1 TMZ     -0.141400
      6 C6          3.4940   -0.0010    1.6470 c3        1 TMZ     -0.015400
      7 C7          1.3720    0.0020    3.7590 c3        1 TMZ     -0.060800
      8 C8         -1.4630    0.0030    2.4580 c3        1 TMZ     -0.047800
      9 H2          2.2170   -0.0040   -0.8020 h5        1 TMZ      0.239000
     10 H61         4.0950   -0.0210    0.6990 h1        1 TMZ      0.098700
     11 H62         3.7430    0.9270    2.2330 h1        1 TMZ      0.098700
     12 H63         3.7360   -0.9070    2.2690 h1        1 TMZ      0.098700
     13 H71         1.9760    0.9030    4.0400 hc        1 TMZ      0.089367
     14 H72         1.9460   -0.9170    4.0460 hc        1 TMZ      0.089367
     15 H73         0.4120    0.0200    4.3360 hc        1 TMZ      0.089367
     16 H81        -1.5370    0.9120    3.1110 hc        1 TMZ      0.083033
     17 H82        -1.5370   -0.9030    3.1150 hc        1 TMZ      0.083033
     18 H83        -2.3380    0.0010    1.7590 hc        1 TMZ      0.083033
@<TRIPOS>BOND
     1    1    2 1   
     2    1    5 1   
     3    2    3 2   
     4    2    9 1   
     5    3    4 1   
     6    3    6 1   
     7    4    5 2   
     8    4    7 1   
     9    5    8 1   
    10    6   10 1   
    11    6   11 1   
    12    6   12 1   
    13    7   13 1   
    14    7   14 1   
    15    7   15 1   
    16    8   16 1   
    17    8   17 1   
    18    8   18 1   
@<TRIPOS>SUBSTRUCTURE
     1 TMZ         1 TEMP              0 ****  ****    0 ROOT
