@<TRIPOS>MOLECULE
molecule
   18    18     1     0     0
SMALL
bcc


@<TRIPOS>ATOM
      1 S1           0.0000     0.0000     0.0000 ss         1 TMZ       0.088200
      2 C2           1.7360     0.0000     0.0000 cc         1 TMZ      -0.010400
      3 N3           2.0130     0.0000     1.2840 na         1 TMZ       0.051900
      4 C4           1.0590     0.0040     2.1920 cc         1 TMZ      -0.122600
      5 C5          -0.2320    -0.0010     1.7720 cd         1 TMZ       0.027600
      6 C6           3.4130     0.0000     1.7160 c3         1 TMZ      -0.020400
      7 C7           1.3930     0.0040     3.6620 c3         1 TMZ      -0.038800
      8 C8          -1.5060    -0.0020     2.5770 c3         1 TMZ      -0.012800
      9 H2           2.4170    -0.0010    -0.8430 h5         1 TMZ       0.260000
     10 H61          4.0580    -0.0060     0.8460 h1         1 TMZ       0.094367
     11 H62          3.6090     0.8880     2.3050 h1         1 TMZ       0.094367
     12 H63          3.6060    -0.8810     2.3150 h1         1 TMZ       0.094367
     13 H71          1.9600    -0.8870     3.9040 hc         1 TMZ       0.080033
     14 H72          0.4770     0.0180     4.2400 hc         1 TMZ       0.080033
     15 H73          1.9820     0.8820     3.8980 hc         1 TMZ       0.080033
     16 H81         -1.5410     0.8850     3.1980 hc         1 TMZ       0.085033
     17 H82         -1.5350    -0.8840     3.2050 hc         1 TMZ       0.085033
     18 H83         -2.3560    -0.0070     1.9060 hc         1 TMZ       0.085033
@<TRIPOS>BOND
     1     1     2 1
     2     1     5 1
     3     2     3 2
     4     2     9 1
     5     3     4 1
     6     3     6 1
     7     4     5 2
     8     4     7 1
     9     5     8 1
    10     6    10 1
    11     6    11 1
    12     6    12 1
    13     7    13 1
    14     7    14 1
    15     7    15 1
    16     8    16 1
    17     8    17 1
    18     8    18 1
@<TRIPOS>SUBSTRUCTURE
     1 TMZ         1 TEMP              0 ****  ****    0 ROOT
