@<TRIPOS>MOLECULE
molecule
   23    24     1     0     0
SMALL
bcc


@<TRIPOS>ATOM
      1 C1           0.0000     0.0000     0.0000 ca         1 TN1      -0.090300
      2 C2           1.3930     0.0000     0.0000 ca         1 TN1       0.114100
      3 C3           2.0950     0.0000     1.1950 ca         1 TN1      -0.189000
      4 C4           1.4060    -0.0050     2.3920 ca         1 TN1      -0.107000
      5 C5           0.0270    -0.0130     2.3920 ca         1 TN1      -0.148000
      6 C6          -0.6810    -0.0140     1.1960 ca         1 TN1      -0.053300
      7 C7          -2.1860    -0.0300     1.2720 c3         1 TN1      -0.033100
      8 C8          -2.7950     0.3980    -0.0610 c3         1 TN1      -0.083400
      9 C9          -2.1570    -0.4380    -1.1760 c3         1 TN1      -0.082400
     10 C10         -0.7020     0.0010    -1.3330 c3         1 TN1      -0.027100
     11 O11          2.0690     0.0060    -1.1790 oh         1 TN1      -0.515100
     12 HG           3.1780     0.0060     1.1900 ha         1 TN1       0.133000
     13 HF           1.9490    -0.0050     3.3300 ha         1 TN1       0.130000
     14 HE          -0.5100    -0.0170     3.3330 ha         1 TN1       0.130000
     15 HD1         -2.5110     0.6520     2.0470 hc         1 TN1       0.051700
     16 HD2         -2.5190    -1.0340     1.5090 hc         1 TN1       0.051700
     17 HC1         -2.5920     1.4490    -0.2330 hc         1 TN1       0.044200
     18 HC2         -3.8650     0.2260    -0.0440 hc         1 TN1       0.044200
     19 HB1         -2.1810    -1.4830    -0.8910 hc         1 TN1       0.047200
     20 HB2         -2.6840    -0.2500    -2.1040 hc         1 TN1       0.047200
     21 HA1         -0.6860     1.0080    -1.7310 hc         1 TN1       0.058200
     22 HA2         -0.1990    -0.7010    -1.9880 hc         1 TN1       0.058200
     23 HH           2.6880     0.7170    -1.1830 ho         1 TN1       0.419000
@<TRIPOS>BOND
     1     1     2 ar
     2     1     6 ar
     3     1    10 1
     4     2     3 ar
     5     2    11 1
     6     3     4 ar
     7     3    12 1
     8     4     5 ar
     9     4    13 1
    10     5     6 ar
    11     5    14 1
    12     6     7 1
    13     7     8 1
    14     7    15 1
    15     7    16 1
    16     8     9 1
    17     8    17 1
    18     8    18 1
    19     9    10 1
    20     9    19 1
    21     9    20 1
    22    10    21 1
    23    10    22 1
    24    11    23 1
@<TRIPOS>SUBSTRUCTURE
     1 TN1         1 TEMP              0 ****  ****    0 ROOT
