@<TRIPOS>MOLECULE
TN1
   23    24     1     0     0
SMALL
bcc


@<TRIPOS>ATOM
      1 C1         -0.0110    0.0290   -0.0180 ca        1 TN1     -0.092300
      2 C2          1.4000    0.0760   -0.0020 ca        1 TN1      0.121100
      3 C3          2.1170    0.1120    1.2000 ca        1 TN1     -0.215000
      4 C4          1.4190    0.1030    2.4060 ca        1 TN1     -0.094000
      5 C5          0.0290    0.0580    2.4110 ca        1 TN1     -0.164000
      6 C6         -0.6900    0.0200    1.2070 ca        1 TN1     -0.041300
      7 C7         -2.1760   -0.0570    1.2650 c3        1 TN1     -0.036100
      8 C8         -2.8420    0.3140   -0.0440 c3        1 TN1     -0.076400
      9 C9         -2.1750   -0.3890   -1.2050 c3        1 TN1     -0.076400
     10 C10        -0.7210    0.0170   -1.3240 c3        1 TN1     -0.026100
     11 O11         2.0290    0.0870   -1.2290 oh        1 TN1     -0.500100
     12 HG          3.2150    0.1470    1.1890 ha        1 TN1      0.132000
     13 HF          1.9730    0.1320    3.3560 ha        1 TN1      0.131000
     14 HE         -0.5170    0.0520    3.3660 ha        1 TN1      0.132000
     15 HD1        -2.5560    0.6160    2.0800 hc        1 TN1      0.051200
     16 HD2        -2.4620   -1.1090    1.5440 hc        1 TN1      0.051200
     17 HC1        -3.9270    0.0350   -0.0000 hc        1 TN1      0.042700
     18 HC2        -2.7840    1.4240   -0.1950 hc        1 TN1      0.042700
     19 HB1        -2.2470   -1.4990   -1.0610 hc        1 TN1      0.042200
     20 HB2        -2.7090   -0.1380   -2.1590 hc        1 TN1      0.042200
     21 HA1        -0.6510    1.0480   -1.7700 hc        1 TN1      0.057700
     22 HA2        -0.1900   -0.6780   -2.0290 hc        1 TN1      0.057700
     23 HH          2.9840    0.0980   -1.0710 ho        1 TN1      0.417000
@<TRIPOS>BOND
     1    1    2 ar  
     2    1    6 ar  
     3    1   10 1   
     4    2    3 ar  
     5    2   11 1   
     6    3    4 ar  
     7    3   12 1   
     8    4    5 ar  
     9    4   13 1   
    10    5    6 ar  
    11    5   14 1   
    12    6    7 1   
    13    7    8 1   
    14    7   15 1   
    15    7   16 1   
    16    8    9 1   
    17    8   17 1   
    18    8   18 1   
    19    9   10 1   
    20    9   19 1   
    21    9   20 1   
    22   10   21 1   
    23   10   22 1   
    24   11   23 1   
@<TRIPOS>SUBSTRUCTURE
     1 TN1         1 TEMP              0 ****  ****    0 ROOT
