@<TRIPOS>MOLECULE
molecule
   26    27     1     0     0
SMALL
bcc


@<TRIPOS>ATOM
      1 O19          0.0000     0.0000     0.0000 o          1 TN2      -0.205000
      2 N17          1.2180     0.0000     0.0000 no         1 TN2       0.299200
      3 O18          1.8270     0.0000     1.0540 o          1 TN2      -0.205000
      4 C14          1.9580     0.0010    -1.2820 ca         1 TN2      -0.184200
      5 C13          3.3400     0.0020    -1.2810 ca         1 TN2      -0.035000
      6 C11          4.0330    -0.0050    -2.4770 ca         1 TN2      -0.010600
      7 Cl12         5.7690    -0.0050    -2.4760 cl         1 TN2      -0.065400
      8 C15          1.2650     0.0010    -2.4790 ca         1 TN2      -0.033000
      9 C16          1.9520     0.0020    -3.6780 ca         1 TN2      -0.203000
     10 C10          3.3400     0.0020    -3.6800 ca         1 TN2       0.169100
     11 O9           4.0180     0.0020    -4.8570 os         1 TN2      -0.183200
     12 C6           3.0930     0.1430    -5.8440 ca         1 TN2       0.043100
     13 C4           2.5870     1.4010    -6.1520 ca         1 TN2       0.113100
     14 O5           3.0210     2.4960    -5.4700 oh         1 TN2      -0.503100
     15 C3           1.6450     1.5400    -7.1590 ca         1 TN2      -0.163000
     16 C7           2.6450    -0.9710    -6.5390 ca         1 TN2      -0.107000
     17 C8           1.7040    -0.8270    -7.5410 ca         1 TN2      -0.128000
     18 C2           1.2050     0.4260    -7.8520 ca         1 TN2       0.049400
     19 Cl20         0.0240     0.6000    -9.1120 cl         1 TN2      -0.085400
     20 H13          3.8810     0.0080    -0.3420 ha         1 TN2       0.182000
     21 H15          0.1810     0.0010    -2.4770 ha         1 TN2       0.171000
     22 H16          1.4090     0.0050    -4.6140 ha         1 TN2       0.169000
     23 HO5          3.4980     3.0620    -6.0550 ho         1 TN2       0.434000
     24 H3           1.2510     2.5190    -7.4020 ha         1 TN2       0.162000
     25 H7           3.0340    -1.9530    -6.2980 ha         1 TN2       0.160000
     26 H8           1.3560    -1.6970    -8.0850 ha         1 TN2       0.157000
@<TRIPOS>BOND
     1     1     2 1
     2     2     3 1
     3     2     4 1
     4     4     5 ar
     5     4     8 ar
     6     5     6 ar
     7     5    20 1
     8     6     7 1
     9     6    10 ar
    10     8     9 ar
    11     8    21 1
    12     9    10 ar
    13     9    22 1
    14    10    11 1
    15    11    12 1
    16    12    13 ar
    17    12    16 ar
    18    13    14 1
    19    13    15 ar
    20    14    23 1
    21    15    18 ar
    22    15    24 1
    23    16    17 ar
    24    16    25 1
    25    17    18 ar
    26    17    26 1
    27    18    19 1
@<TRIPOS>SUBSTRUCTURE
     1 TN2         1 TEMP              0 ****  ****    0 ROOT
