@<TRIPOS>MOLECULE
TN3
   31    32     1     0     0
SMALL
bcc


@<TRIPOS>ATOM
      1 Cl21         0.0000     0.0000     0.0000 cl         1 TN3      -0.006400
      2 C14          1.7360     0.0000     0.0000 ca         1 TN3      -0.086600
      3 C13          2.4240     0.0000     1.1940 ca         1 TN3      -0.050000
      4 C10          3.8210     0.0060     1.1930 ca         1 TN3      -0.186600
      5 C11          4.5620     0.0110     2.4690 c          1 TN3       0.599700
      6 O13          5.7780     0.0100     2.4660 o          1 TN3      -0.650100
      7 N20          3.8920     0.0170     3.6380 ns         1 TN3      -0.199900
      8 C12          4.6270     0.0220     4.9050 c3         1 TN3       0.088300
      9 C9           4.5150    -0.0010    -0.0200 ca         1 TN3       0.012000
     10 C8           3.8210    -0.0060    -1.2090 ca         1 TN3      -0.210000
     11 C7           2.4310    -0.0060    -1.2050 ca         1 TN3       0.159100
     12 O9           1.7510    -0.0110    -2.3790 os         1 TN3      -0.177200
     13 C5           2.6750     0.1040    -3.3690 ca         1 TN3       0.058100
     14 C6           3.2870    -1.0340    -3.8870 ca         1 TN3       0.126100
     15 O8           2.9590    -2.2630    -3.4060 oh         1 TN3      -0.481100
     16 C1           4.2250    -0.9120    -4.9000 ca         1 TN3      -0.151000
     17 C4           3.0120     1.3540    -3.8620 ca         1 TN3      -0.083000
     18 C3           3.9520     1.4690    -4.8690 ca         1 TN3      -0.107000
     19 C2           4.5580     0.3390    -5.3870 ca         1 TN3      -0.015600
     20 Cl12         5.7380     0.4900    -6.6520 cl         1 TN3      -0.011400
     21 H13          1.8830    -0.0690     2.1300 ha         1 TN3       0.112000
     22 H20          2.8910     0.0260     3.6400 hn         1 TN3       0.175500
     23 H121         3.9250     0.0250     5.7300 h1         1 TN3       0.009367
     24 H122         5.2500     0.9070     4.9570 h1         1 TN3       0.009367
     25 H123         5.2500    -0.8620     4.9640 h1         1 TN3       0.009367
     26 H9           5.5990     0.0020    -0.0250 ha         1 TN3       0.129000
     27 H8           4.3590    -0.0110    -2.1490 ha         1 TN3       0.143000
     28 HO8          2.5500    -2.7690    -4.0890 ho         1 TN3       0.410000
     29 H1           4.7020    -1.7960    -5.3060 ha         1 TN3       0.129000
     30 H4           2.5400     2.2410    -3.4580 ha         1 TN3       0.124000
     31 H3           4.2150     2.4470    -5.2540 ha         1 TN3       0.121000
@<TRIPOS>BOND
     1     1     2 1   
     2     2     3 ar  
     3     2    11 ar  
     4     3     4 ar  
     5     3    21 1   
     6     4     5 1   
     7     4     9 ar  
     8     5     6 2   
     9     5     7 1   
    10     7     8 1   
    11     7    22 1   
    12     8    23 1   
    13     8    24 1   
    14     8    25 1   
    15     9    10 ar  
    16     9    26 1   
    17    10    11 ar  
    18    10    27 1   
    19    11    12 1   
    20    12    13 1   
    21    13    14 ar  
    22    13    17 ar  
    23    14    15 1   
    24    14    16 ar  
    25    15    28 1   
    26    16    19 ar  
    27    16    29 1   
    28    17    18 ar  
    29    17    30 1   
    30    18    19 ar  
    31    18    31 1   
    32    19    20 1   
@<TRIPOS>SUBSTRUCTURE
     1 TN3         1 TEMP              0 ****  ****    0 ROOT
