@<TRIPOS>MOLECULE
TN4
   57    58     1     0     0
SMALL
bcc


@<TRIPOS>ATOM
      1 C1           0.0000     0.0000     0.0000 c3         1 TN4       0.175800
      2 C2           1.5290     0.0000     0.0000 c3         1 TN4      -0.020700
      3 C3           2.0390     0.0000     1.4430 c3         1 TN4       0.172100
      4 C4           1.5290    -1.2480     2.1640 c3         1 TN4       0.174100
      5 Cl4          3.5400    -8.3170     3.0260 cl         1 TN4      -0.059400
      6 C5          -0.0010    -1.2490     2.1640 c3         1 TN4      -0.048400
      7 C6          -0.5110    -1.2490     0.7210 c3         1 TN4      -0.057400
      8 C11         -0.5100     0.0000    -1.4430 c3         1 TN4      -0.046100
      9 O11         -0.4770     1.1670     0.6730 oh         1 TN4      -0.587800
     10 C21          2.0390     1.2490    -0.7210 cx         1 TN4       0.058800
     11 C22          2.6830     1.0650    -2.0970 cx         1 TN4       0.141100
     12 C23          2.4870     2.1760    -3.1300 c3         1 TN4      -0.033200
     13 C24          3.0890     1.7510    -4.4450 c2         1 TN4      -0.504200
     14 C25          2.3710     1.8030    -5.5400 c2         1 TN4       0.053600
     15 C2A          1.2450     2.5310    -0.4710 c3         1 TN4       0.005900
     16 O2A          3.4480     1.3690    -0.9290 op         1 TN4      -0.357600
     17 C2B          2.9060     1.2120    -6.8190 c3         1 TN4       0.009100
     18 C2C          1.0120     2.4540    -5.5210 c3         1 TN4       0.009100
     19 O31          3.4680     0.0000     1.4430 os         1 TN4      -0.386600
     20 O41          2.0130    -2.4340     1.4800 os         1 TN4      -0.407900
     21 N42          2.6650    -4.6670     1.6580 ns         1 TN4      -0.134500
     22 C43          2.8690    -5.7670     2.4090 c          1 TN4       0.539100
     23 C44          3.3710    -7.0350     1.7690 c3         1 TN4      -0.025000
     24 O4A          1.9950    -3.5020     3.4250 o          1 TN4      -0.575000
     25 O4B          2.6490    -5.7360     3.6020 o          1 TN4      -0.524100
     26 H2           1.8880    -0.8870    -0.5070 hc         1 TN4       0.058700
     27 H3           1.6740     0.8830     1.9520 h1         1 TN4       0.040700
     28 H4           1.8880    -1.2440     3.1870 h1         1 TN4       0.051700
     29 H5          -0.3610    -2.1350     2.6730 hc         1 TN4       0.034700
     30 H5A         -0.3620    -0.3620     2.6730 hc         1 TN4       0.034700
     31 H6          -1.5940    -1.2460     0.7220 hc         1 TN4       0.025200
     32 H6A         -0.1470    -2.1330     0.2110 hc         1 TN4       0.025200
     33 H11          0.1710    -0.5670    -2.0660 hc         1 TN4       0.017367
     34 H11A        -1.4930    -0.4530    -1.4780 hc         1 TN4       0.017367
     35 H11B        -0.5680     1.0190    -1.8050 hc         1 TN4       0.017367
     36 HO11        -1.4200     1.1660     0.6740 ho         1 TN4       0.391000
     37 H22          2.7550     0.0370    -2.4330 h1         1 TN4       0.068700
     38 H23          2.9750     3.0800    -2.7850 hc         1 TN4       0.019700
     39 H23A         1.4280     2.3650    -3.2610 hc         1 TN4       0.019700
     40 H24          3.0780     2.7930    -4.1520 ha         1 TN4       0.299000
     41 H2A          0.3460     2.5230    -1.0750 hc         1 TN4       0.021367
     42 H2AA         0.9760     2.5910     0.5770 hc         1 TN4       0.021367
     43 H2AB         1.8500     3.3890    -0.7370 hc         1 TN4       0.021367
     44 H2B          3.7830     0.6130    -6.6010 hc         1 TN4       0.019867
     45 H2BA         3.1740     2.0100    -7.5010 hc         1 TN4       0.019867
     46 H2BB         2.1470     0.5880    -7.2740 hc         1 TN4       0.019867
     47 H2C          0.3160     1.8210    -4.9830 hc         1 TN4       0.019867
     48 H2CA         1.0800     3.4160    -5.0280 hc         1 TN4       0.019867
     49 H2CB         0.6640     2.5920    -6.5370 hc         1 TN4       0.019867
     50 H31          5.1250     0.6930     2.4540 h1         1 TN4      -0.009967
     51 H31A         3.6570     1.6600     2.6500 h1         1 TN4      -0.009967
     52 H31B         3.8050     0.1020     3.4740 h1         1 TN4      -0.009967
     53 HN42         2.8550    -4.6900     0.6760 hn         1 TN4       0.172500
     54 H44          4.3340    -6.8510     1.3080 h1         1 TN4       0.037200
     55 H44A         2.6660    -7.3620     1.0130 h1         1 TN4       0.037200
     56 C31          4.0490     0.6530     2.5730 c3         1 TN4       0.244700
     57 C41          2.2160    -3.5330     2.2310 c          1 TN4       0.662100
@<TRIPOS>BOND
     1     1     2 1   
     2     1     7 1   
     3     1     8 1   
     4     1     9 1   
     5     2     3 1   
     6     2    10 1   
     7     2    26 1   
     8     3     4 1   
     9     3    19 1   
    10     3    27 1   
    11     4     6 1   
    12     4    20 1   
    13     4    28 1   
    14     5    23 1   
    15     6     7 1   
    16     6    29 1   
    17     6    30 1   
    18     7    31 1   
    19     7    32 1   
    20     8    33 1   
    21     8    34 1   
    22     8    35 1   
    23     9    36 1   
    24    10    11 1   
    25    10    15 1   
    26    10    16 1   
    27    11    12 1   
    28    11    16 1   
    29    11    37 1   
    30    12    13 1   
    31    12    38 1   
    32    12    39 1   
    33    13    14 2   
    34    13    40 1   
    35    14    17 1   
    36    14    18 1   
    37    15    41 1   
    38    15    42 1   
    39    15    43 1   
    40    17    44 1   
    41    17    45 1   
    42    17    46 1   
    43    18    47 1   
    44    18    48 1   
    45    18    49 1   
    46    19    56 1   
    47    20    57 1   
    48    21    22 1   
    49    21    53 1   
    50    21    57 1   
    51    22    23 1   
    52    22    25 2   
    53    23    54 1   
    54    23    55 1   
    55    24    57 2   
    56    50    56 1   
    57    51    56 1   
    58    52    56 1   
@<TRIPOS>SUBSTRUCTURE
     1 TN4         1 TEMP              0 ****  ****    0 ROOT
