@<TRIPOS>MOLECULE
molecule
   57    58     1     0     0
SMALL
bcc


@<TRIPOS>ATOM
      1 C1           0.0000     0.0000     0.0000 c3         1 TN4       0.155800
      2 C2           1.5290     0.0000     0.0000 c3         1 TN4      -0.022700
      3 C3           2.0390     0.0000     1.4430 c3         1 TN4       0.156100
      4 C4           1.5290    -1.2480     2.1640 c3         1 TN4       0.144100
      5 Cl4          3.5400    -8.3170     3.0260 cl         1 TN4      -0.132400
      6 C5          -0.0010    -1.2490     2.1640 c3         1 TN4      -0.099400
      7 C6          -0.5110    -1.2490     0.7210 c3         1 TN4      -0.105400
      8 C11         -0.5100     0.0000    -1.4430 c3         1 TN4      -0.123100
      9 O11         -0.4770     1.1670     0.6730 oh         1 TN4      -0.604800
     10 C21          2.0390     1.2490    -0.7210 cx         1 TN4       0.055800
     11 C22          2.6830     1.0650    -2.0970 cx         1 TN4       0.047100
     12 C23          2.4870     2.1760    -3.1300 c3         1 TN4      -0.034200
     13 C24          3.0890     1.7510    -4.4450 c2         1 TN4      -0.180200
     14 C25          2.3710     1.8030    -5.5400 c2         1 TN4      -0.133400
     15 C2A          1.2450     2.5310    -0.4710 c3         1 TN4      -0.066100
     16 O2A          3.4480     1.3690    -0.9290 op         1 TN4      -0.355600
     17 C2B          2.9060     1.2120    -6.8190 c3         1 TN4      -0.052400
     18 C2C          1.0120     2.4540    -5.5210 c3         1 TN4      -0.052400
     19 O31          3.4680     0.0000     1.4430 os         1 TN4      -0.403600
     20 O41          2.0130    -2.4340     1.4800 os         1 TN4      -0.426900
     21 N42          2.6650    -4.6670     1.6580 ns         1 TN4      -0.567500
     22 C43          2.8690    -5.7670     2.4090 c          1 TN4       0.643100
     23 C44          3.3710    -7.0350     1.7690 c3         1 TN4      -0.038000
     24 O4A          1.9950    -3.5020     3.4250 o          1 TN4      -0.538000
     25 O4B          2.6490    -5.7360     3.6020 o          1 TN4      -0.488100
     26 H2           1.8880    -0.8870    -0.5070 hc         1 TN4       0.085700
     27 H3           1.6740     0.8830     1.9520 h1         1 TN4       0.072700
     28 H4           1.8880    -1.2440     3.1870 h1         1 TN4       0.082700
     29 H5          -0.3620    -0.3630     2.6730 hc         1 TN4       0.065200
     30 H5A         -0.3610    -2.1350     2.6730 hc         1 TN4       0.065200
     31 H6          -1.5940    -1.2460     0.7220 hc         1 TN4       0.053700
     32 H6A         -0.1470    -2.1330     0.2110 hc         1 TN4       0.053700
     33 H11         -1.4840    -0.4730    -1.4820 hc         1 TN4       0.046033
     34 H11A        -0.5900     1.0200    -1.7970 hc         1 TN4       0.046033
     35 H11B         0.1830    -0.5470    -2.0710 hc         1 TN4       0.046033
     36 HO11        -1.4200     1.1690     0.6690 ho         1 TN4       0.403000
     37 H22          2.7540     0.0370    -2.4330 h1         1 TN4       0.088700
     38 H23          1.4280     2.3650    -3.2610 hc         1 TN4       0.062200
     39 H23A         2.9750     3.0800    -2.7850 hc         1 TN4       0.062200
     40 H24          4.0660     1.2830    -4.4630 ha         1 TN4       0.131000
     41 H2A          1.3130     2.8000     0.5760 hc         1 TN4       0.050033
     42 H2AA         1.6520     3.3320    -1.0760 hc         1 TN4       0.050033
     43 H2AB         0.2070     2.3710    -0.7360 hc         1 TN4       0.050033
     44 H2B          3.4080     1.9830    -7.3910 hc         1 TN4       0.041200
     45 H2BA         2.0870     0.8070    -7.4010 hc         1 TN4       0.041200
     46 H2BB         3.6090     0.4210    -6.5850 hc         1 TN4       0.041200
     47 H2C          0.3090     1.8070    -5.0100 hc         1 TN4       0.041200
     48 H2CA         1.0740     3.4020    -5.0010 hc         1 TN4       0.041200
     49 H2CB         0.6770     2.6200    -6.5370 hc         1 TN4       0.041200
     50 H31          3.2870     0.8170     3.3260 h1         1 TN4       0.033033
     51 H31A         4.8360     0.0320     2.9850 h1         1 TN4       0.033033
     52 H31B         4.4640     1.6060     2.2670 h1         1 TN4       0.033033
     53 HN42         2.8220    -4.7000     0.6700 hn         1 TN4       0.328500
     54 H44          2.6660    -7.3620     1.0130 h1         1 TN4       0.083200
     55 H44A         4.3340    -6.8510     1.3080 h1         1 TN4       0.083200
     56 C31          4.0490     0.6530     2.5730 c3         1 TN4       0.124700
     57 C41          2.2160    -3.5330     2.2310 c          1 TN4       0.741100
@<TRIPOS>BOND
     1     9     1 1
     2     8     1 1
     3     1     2 1
     4     1     7 1
     5    10     2 1
     6     2     3 1
     7     2    26 1
     8     3    19 1
     9     3     4 1
    10     3    27 1
    11     4     6 1
    12     4    20 1
    13     4    28 1
    14    23     5 1
    15     7     6 1
    16     6    29 1
    17     6    30 1
    18     7    31 1
    19     7    32 1
    20     8    33 1
    21     8    34 1
    22     8    35 1
    23     9    36 1
    24    15    10 1
    25    11    10 1
    26    10    16 1
    27    12    11 1
    28    11    16 1
    29    11    37 1
    30    13    12 1
    31    12    38 1
    32    12    39 1
    33    14    13 2
    34    13    40 1
    35    17    14 1
    36    14    18 1
    37    15    41 1
    38    15    42 1
    39    15    43 1
    40    17    44 1
    41    17    45 1
    42    17    46 1
    43    18    47 1
    44    18    48 1
    45    18    49 1
    46    19    56 1
    47    56    50 1
    48    56    51 1
    49    56    52 1
    50    20    57 1
    51    57    24 2
    52    57    21 1
    53    21    22 1
    54    21    53 1
    55    22    23 1
    56    22    25 2
    57    23    54 1
    58    23    55 1
@<TRIPOS>SUBSTRUCTURE
     1 TN4         1 TEMP              0 ****  ****    0 ROOT
