@<TRIPOS>MOLECULE
TN5
   26    27     1     0     0
SMALL
bcc


@<TRIPOS>ATOM
      1 Cl13         0.0000     0.0000     0.0000 cl         1 TN5      -0.016400
      2 C12          1.7360     0.0000     0.0000 ca         1 TN5      -0.017600
      3 C11          2.4270     0.0000     1.2000 ca         1 TN5      -0.108000
      4 C10          3.8090    -0.0000     1.2040 ca         1 TN5      -0.086000
      5 C9           4.5070     0.0010     0.0070 ca         1 TN5       0.066100
      6 C8           3.8130     0.0070    -1.2000 ca         1 TN5       0.125100
      7 O2           4.4930     0.0090    -2.3770 oh         1 TN5      -0.480100
      8 C7           2.4270     0.0020    -1.1980 ca         1 TN5      -0.153000
      9 O1           5.8660     0.0020     0.0110 os         1 TN5      -0.181200
     10 C1           6.2590     1.3030    -0.0460 ca         1 TN5       0.131100
     11 C6           5.3140     2.3060    -0.2030 ca         1 TN5      -0.191000
     12 C5           5.7120     3.6270    -0.2600 ca         1 TN5      -0.068000
     13 C4           7.0580     3.9520    -0.1590 ca         1 TN5       0.002600
     14 N1           7.4620     5.2910    -0.2160 nv         1 TN5      -0.556200
     15 C3           8.0050     2.9480    -0.0070 ca         1 TN5      -0.079000
     16 C2           7.6060     1.6260     0.0540 ca         1 TN5      -0.067600
     17 Cl14         8.7880     0.3700     0.2500 cl         1 TN5      -0.013400
     18 H11          1.8830    -0.0010     2.1370 ha         1 TN5       0.120000
     19 H10          4.3470    -0.0020     2.1440 ha         1 TN5       0.124000
     20 HO2          4.3180    -0.7920    -2.8430 ho         1 TN5       0.409000
     21 H7           1.8850     0.0070    -2.1360 ha         1 TN5       0.128000
     22 H6           4.2640     2.0530    -0.2820 ha         1 TN5       0.138000
     23 H5           4.9730     4.4100    -0.3820 ha         1 TN5       0.109000
     24 HN11         7.6880     5.7080    -1.0970 hn         1 TN5       0.272300
     25 HN12         7.5330     5.8290     0.6250 hn         1 TN5       0.272300
     26 H3           9.0550     3.2010     0.0720 ha         1 TN5       0.119000
@<TRIPOS>BOND
     1     1     2 1   
     2     2     3 ar  
     3     2     8 ar  
     4     3     4 ar  
     5     3    18 1   
     6     4     5 ar  
     7     4    19 1   
     8     5     6 ar  
     9     5     9 1   
    10     6     7 1   
    11     6     8 ar  
    12     7    20 1   
    13     8    21 1   
    14     9    10 1   
    15    10    11 ar  
    16    10    16 ar  
    17    11    12 ar  
    18    11    22 1   
    19    12    13 ar  
    20    12    23 1   
    21    13    14 1   
    22    13    15 ar  
    23    14    24 1   
    24    14    25 1   
    25    15    16 ar  
    26    15    26 1   
    27    16    17 1   
@<TRIPOS>SUBSTRUCTURE
     1 TN5         1 TEMP              0 ****  ****    0 ROOT
