@<TRIPOS>MOLECULE
TN6
   19    18     1     0     0
SMALL
bcc


@<TRIPOS>ATOM
      1 C4           0.0000     0.0000     0.0000 c3         1 TN6      -0.017100
      2 C3           1.5300     0.0000     0.0000 c3         1 TN6       0.195300
      3 N            2.0210     0.0000     1.3850 n3         1 TN6      -0.493700
      4 P            3.4340    -0.9020     1.5240 p5         1 TN6       0.529800
      5 O2           4.6000    -0.2090     0.6560 o          1 TN6      -0.747833
      6 OD           3.8450    -0.9580     2.9440 o          1 TN6      -0.747833
      7 C1           2.2200     1.3710     1.8730 c3         1 TN6       0.195300
      8 C2           0.9830     1.8200     2.6540 c3         1 TN6      -0.017100
      9 OXT          3.1750    -2.3950     0.9800 o          1 TN6      -0.747833
     10 H41C        -0.3610    -0.4970     0.8920 hc         1 TN6      -0.027967
     11 H42C        -0.3610    -0.5240    -0.8770 hc         1 TN6      -0.027967
     12 H43C        -0.3610     1.0210    -0.0150 hc         1 TN6      -0.027967
     13 H31C         1.8910    -0.8850    -0.5110 h1         1 TN6       0.004200
     14 H32C         1.8910     0.8840    -0.5110 h1         1 TN6       0.004200
     15 H11C         3.0870     1.4020     2.5210 h1         1 TN6       0.004200
     16 H12C         2.3750     2.0350     1.0310 h1         1 TN6       0.004200
     17 H21C         0.4660     0.9500     3.0420 hc         1 TN6      -0.027967
     18 H22C         0.3200     2.3700     1.9970 hc         1 TN6      -0.027967
     19 H23C         1.2860     2.4560     3.4770 hc         1 TN6      -0.027967
@<TRIPOS>BOND
     1     1     2 1   
     2     1    10 1   
     3     1    11 1   
     4     1    12 1   
     5     2     3 1   
     6     2    13 1   
     7     2    14 1   
     8     3     4 1   
     9     3     7 1   
    10     4     5 1   
    11     4     6 1   
    12     4     9 1   
    13     7     8 1   
    14     7    15 1   
    15     7    16 1   
    16     8    17 1   
    17     8    18 1   
    18     8    19 1   
@<TRIPOS>SUBSTRUCTURE
     1 TN6         1 TEMP              0 ****  ****    0 ROOT
