@<TRIPOS>MOLECULE
molecule
   19    18     1     0     0
SMALL
bcc


@<TRIPOS>ATOM
      1 C4           0.0000     0.0000     0.0000 c3         1 TN6      -0.093100
      2 C3           1.5300     0.0000     0.0000 c3         1 TN6       0.186300
      3 N            2.0210     0.0000     1.3850 n3         1 TN6      -0.714700
      4 P            3.4340    -0.9020     1.5240 p5         1 TN6       1.120800
      5 O2           4.6000    -0.2090     0.6560 o          1 TN6      -0.913500
      6 OD           3.8450    -0.9580     2.9440 o          1 TN6      -0.913500
      7 C1           2.2200     1.3710     1.8730 c3         1 TN6       0.186300
      8 C2           0.9830     1.8200     2.6540 c3         1 TN6      -0.093100
      9 OXT          3.1750    -2.3950     0.9800 o          1 TN6      -0.913500
     10 H41C        -0.3610    -0.4970     0.8920 hc         1 TN6       0.003033
     11 H42C        -0.3610    -0.5240    -0.8770 hc         1 TN6       0.003033
     12 H43C        -0.3610     1.0210    -0.0150 hc         1 TN6       0.003033
     13 H31C         1.8910    -0.8850    -0.5110 h1         1 TN6       0.032450
     14 H32C         1.8910     0.8840    -0.5110 h1         1 TN6       0.032450
     15 H11C         3.0870     1.4020     2.5210 h1         1 TN6       0.032450
     16 H12C         2.3750     2.0350     1.0310 h1         1 TN6       0.032450
     17 H21C         0.4660     0.9500     3.0420 hc         1 TN6       0.003033
     18 H22C         0.3200     2.3700     1.9970 hc         1 TN6       0.003033
     19 H23C         1.2860     2.4560     3.4770 hc         1 TN6       0.003033
@<TRIPOS>BOND
     1     1     2 1
     2     2     3 1
     3     3     4 1
     4     3     7 1
     5     4     5 1
     6     4     6 1
     7     4     9 1
     8     7     8 1
     9     1    10 1
    10     1    11 1
    11     1    12 1
    12     2    13 1
    13     2    14 1
    14     7    15 1
    15     7    16 1
    16     8    17 1
    17     8    18 1
    18     8    19 1
@<TRIPOS>SUBSTRUCTURE
     1 TN6         1 TEMP              0 ****  ****    0 ROOT
