@<TRIPOS>MOLECULE
molecule
   20    19     1     0     0
SMALL
bcc


@<TRIPOS>ATOM
      1 C2           0.0000     0.0000     0.0000 c3         1 TN7      -0.098100
      2 C1           1.5300     0.0000     0.0000 c3         1 TN7       0.207400
      3 O3           2.0060     0.0000     1.3480 os         1 TN7      -0.579200
      4 P            3.5710     0.0000     1.7250 p5         1 TN7       1.288700
      5 O2           4.2610     1.0690     0.9680 o          1 TN7      -0.817000
      6 N            4.2440    -1.4910     1.3290 n7         1 TN7      -0.941300
      7 C3           3.5830    -2.5770     2.0620 c3         1 TN7       0.210800
      8 C4           3.2920    -3.7350     1.1050 c3         1 TN7      -0.108100
      9 OXT          3.7430     0.2640     3.3030 o          1 TN7      -0.817000
     10 H21C        -0.3610    -0.1460    -1.0110 hc         1 TN7       0.026700
     11 H22C        -0.3610    -0.8020     0.6320 hc         1 TN7       0.026700
     12 H23C        -0.3610     0.9490     0.3790 hc         1 TN7       0.026700
     13 H11C         1.8920    -0.8850    -0.5110 h1         1 TN7       0.017700
     14 H12C         1.8920     0.8850    -0.5100 h1         1 TN7       0.017700
     15 HN1          5.2170    -1.5570     1.1050 hn         1 TN7       0.406800
     16 H31C         2.6530    -2.2150     2.4840 h1         1 TN7       0.033700
     17 H32C         4.2310    -2.9210     2.8590 h1         1 TN7       0.033700
     18 H41C         2.2390    -3.9840     1.1490 hc         1 TN7       0.021367
     19 H42C         3.5530    -3.4430     0.0950 hc         1 TN7       0.021367
     20 H43C         3.8790    -4.5990     1.3950 hc         1 TN7       0.021367
@<TRIPOS>BOND
     1     1     2 1
     2     2     3 1
     3     3     4 1
     4     4     5 1
     5     4     6 1
     6     4     9 1
     7     6     7 1
     8     7     8 1
     9     1    10 1
    10     1    11 1
    11     1    12 1
    12     2    13 1
    13     2    14 1
    14     6    15 1
    15     7    16 1
    16     7    17 1
    17     8    18 1
    18     8    19 1
    19     8    20 1
@<TRIPOS>SUBSTRUCTURE
     1 TN7         1 TEMP              0 ****  ****    0 ROOT
