@<TRIPOS>MOLECULE
molecule
   44    43     1     0     0
SMALL
bcc


@<TRIPOS>ATOM
      1 O8           0.0000     0.0000     0.0000 o          1 TNA      -0.890300
      2 C12          1.2090     0.0000     0.0000 c          1 TNA       0.892600
      3 O7           1.8790     0.0000     1.1620 o          1 TNA      -0.890300
      4 C10          1.9620    -0.0070    -1.3050 c3         1 TNA      -0.176400
      5 C9           0.9690    -0.0120    -2.4680 c3         1 TNA      -0.032400
      6 C8           1.7330    -0.0190    -3.7930 c3         1 TNA       0.055500
      7 C11          0.7590    -0.1480    -4.9350 c          1 TNA       0.871600
      8 O6          -0.0400    -1.2240    -5.0170 o          1 TNA      -0.879800
      9 O5           0.6970     0.7160    -5.7770 o          1 TNA      -0.879800
     10 N3           2.4850     1.2360    -3.9310 n7         1 TNA      -0.813200
     11 C7           3.6440     1.0610    -4.8160 c3         1 TNA       0.160800
     12 C6           4.4000     2.3850    -4.9340 c3         1 TNA      -0.049400
     13 C4           5.6070     2.2040    -5.8570 c3         1 TNA       0.056500
     14 C5           6.2810     3.5340    -6.0710 c          1 TNA       0.868600
     15 O3           5.6000     4.5500    -6.6250 o          1 TNA      -0.864300
     16 O4           7.4340     3.6870    -5.7450 o          1 TNA      -0.864300
     17 N2           6.5580     1.2670    -5.2410 n7         1 TNA      -0.802200
     18 C3           7.3860     0.6120    -6.2610 c3         1 TNA       0.149800
     19 C2           8.3610    -0.3540    -5.5830 c3         1 TNA      -0.093400
     20 C1           9.2250    -1.0360    -6.6460 c3         1 TNA      -0.016500
     21 N1           8.3760    -1.8770    -7.5010 nz         1 TNA      -0.790600
     22 C           10.2660    -1.8940    -5.9730 c          1 TNA       0.878600
     23 O2          11.3790    -1.3320    -5.4770 o          1 TNA      -0.806300
     24 O1          10.0980    -3.0870    -5.8800 o          1 TNA      -0.806300
     25 H10          2.5850    -0.8920    -1.3580 hc         1 TNA       0.031200
     26 H10A         2.5850     0.8770    -1.3670 hc         1 TNA       0.031200
     27 H9           0.3460     0.8730    -2.4150 hc         1 TNA       0.044700
     28 H9A          0.3450    -0.8960    -2.4060 hc         1 TNA       0.044700
     29 H8           2.4210    -0.8550    -3.8090 h1         1 TNA       0.035700
     30 HN3          1.8850     1.9460    -4.3020 hn         1 TNA       0.358800
     31 H7           3.3060     0.7500    -5.7970 h1         1 TNA       0.021200
     32 H7A          4.3020     0.3050    -4.4040 h1         1 TNA       0.021200
     33 H6           4.7390     2.6960    -3.9530 hc         1 TNA       0.053200
     34 H6A          3.7420     3.1410    -5.3450 hc         1 TNA       0.053200
     35 H4           5.2770     1.8080    -6.8100 h1         1 TNA       0.040700
     36 HN2          7.1460     1.7620    -4.6000 hn         1 TNA       0.376800
     37 H3           7.9430     1.3620    -6.8100 h1         1 TNA       0.013200
     38 H3A          6.7500     0.0630    -6.9440 h1         1 TNA       0.013200
     39 H2           7.8040    -1.1030    -5.0350 hc         1 TNA       0.089200
     40 H2A          8.9970     0.1960    -4.9000 hc         1 TNA       0.089200
     41 H1           9.7140    -0.2830    -7.2520 hx         1 TNA       0.098700
     42 HN1          7.9190    -1.3050    -8.1830 hn         1 TNA       0.436133
     43 HN1A         8.9420    -2.5600    -7.9640 hn         1 TNA       0.436133
     44 H13          7.6890    -2.3380    -6.9380 hn         1 TNA       0.436133
@<TRIPOS>BOND
     1     1     2 1
     2     4     2 1
     3     2     3 1
     4     5     4 1
     5     4    25 1
     6     4    26 1
     7     6     5 1
     8     5    27 1
     9     5    28 1
    10    10     6 1
    11     6     7 1
    12     6    29 1
    13     7     8 1
    14     7     9 1
    15    11    10 1
    16    10    30 1
    17    12    11 1
    18    11    31 1
    19    11    32 1
    20    13    12 1
    21    12    33 1
    22    12    34 1
    23    17    13 1
    24    13    14 1
    25    13    35 1
    26    16    14 1
    27    14    15 1
    28    18    17 1
    29    17    36 1
    30    19    18 1
    31    18    37 1
    32    18    38 1
    33    20    19 1
    34    19    39 1
    35    19    40 1
    36    21    20 1
    37    22    20 1
    38    20    41 1
    39    21    42 1
    40    21    43 1
    41    24    22 1
    42    22    23 1
    43    44    21 1
@<TRIPOS>SUBSTRUCTURE
     1 TNA         1 TEMP              0 ****  ****    0 ROOT
