@<TRIPOS>MOLECULE
TNC
   50    53     1     0     0
SMALL
bcc


@<TRIPOS>ATOM
      1 C2           0.0000     0.0000     0.0000 ca         1 TNC       0.059000
      2 C1           1.3870     0.0000     0.0000 ca         1 TNC      -0.149000
      3 C6           2.0970     0.0000     1.1900 ca         1 TNC       0.010000
      4 C5           1.4670    -0.0350     2.4120 ca         1 TNC      -0.204000
      5 C4           0.0690    -0.0570     2.4150 ca         1 TNC       0.214100
      6 C3          -0.6420    -0.0510     1.2220 ca         1 TNC      -0.155000
      7 O1          -0.6050    -0.1030     3.6170 oh         1 TNC      -0.465100
      8 C8          -2.1360     0.0090    -1.1460 ca         1 TNC      -0.008300
      9 C7          -0.7520    -0.1570    -1.1700 ca         1 TNC      -0.101000
     10 C10         -2.0280    -0.0720     1.2300 ca         1 TNC       0.324100
     11 C9          -2.7980    -0.0170     0.0830 ca         1 TNC      -0.251800
     12 O2          -2.6140    -0.1160     2.4620 oh         1 TNC      -0.483100
     13 C12         -4.2460     0.0200    -2.2650 c3         1 TNC       0.016500
     14 C11         -2.9140    -0.3990    -2.2470 c3         1 TNC      -0.063100
     15 C14         -4.1810    -0.0480     0.1090 ce         1 TNC       0.424900
     16 C13         -4.9440    -0.0070    -1.0530 cf         1 TNC      -0.307200
     17 O3          -4.8450    -0.0750     1.3290 oh         1 TNC      -0.498100
     18 C15         -4.9930    -0.0590    -3.4200 c3         1 TNC       0.060500
     19 C16         -6.3560     0.1620    -3.4440 c          1 TNC       0.677300
     20 C17         -7.0330     0.1830    -2.2530 ce         1 TNC      -0.528400
     21 C18         -6.3210     0.0960    -1.0630 cf         1 TNC       0.448100
     22 O4          -7.1190     0.1180     0.0740 oh         1 TNC      -0.511100
     23 C19         -8.4880     0.2890    -2.2790 c          1 TNC       0.440300
     24 O5          -7.0090     0.2470    -4.6660 o          1 TNC      -0.769100
     25 N2          -9.0150     0.8240    -3.4100 nz         1 TNC       0.134600
     26 O6          -9.2790    -0.0250    -1.3970 o          1 TNC      -0.505100
     27 N1          -4.3880     0.1510    -4.6920 n3         1 TNC      -0.471600
     28 C20         -5.2610    -0.3510    -5.7230 c3         1 TNC       0.125100
     29 C21         -3.1420    -0.5850    -4.6860 c3         1 TNC       0.125100
     30 HC1          1.9220     0.0280    -0.9420 ha         1 TNC       0.124000
     31 HC6          3.1800     0.0180     1.1560 ha         1 TNC       0.113000
     32 HC5          2.0320    -0.0350     3.3360 ha         1 TNC       0.133000
     33 HO1          0.0130    -0.2160     4.3200 ho         1 TNC       0.419000
     34 HC7         -0.2550    -0.4060    -2.1000 ha         1 TNC       0.126000
     35 HO2         -2.6910     0.7590     2.8050 ho         1 TNC       0.428000
     36 HC12        -4.0540     1.0850    -2.2990 hc         1 TNC       0.035700
     37 H111        -2.4370    -0.0290    -3.1460 hc         1 TNC       0.079200
     38 H112        -2.9060    -1.4820    -2.2770 hc         1 TNC       0.079200
     39 HO3         -5.0210     0.8080     1.6110 ho         1 TNC       0.437000
     40 HC15        -5.0340    -1.1410    -3.4560 h1         1 TNC       0.031700
     41 HO4         -7.3920    -0.7590     0.2840 ho         1 TNC       0.457000
     42 HN21        -9.0370     0.1290    -4.1300 hn         1 TNC       0.260467
     43 HN22        -9.9460     1.1420    -3.2250 hn         1 TNC       0.260467
     44 H201        -4.6700    -0.6950    -6.5620 h1         1 TNC       0.027533
     45 H202        -5.8450    -1.1750    -5.3310 h1         1 TNC       0.027533
     46 H203        -5.9260     0.4390    -6.0490 h1         1 TNC       0.027533
     47 H211        -3.2100    -1.4030    -3.9790 h1         1 TNC       0.027533
     48 H212        -2.3340     0.0760    -4.3980 h1         1 TNC       0.027533
     49 H213        -2.9510    -0.9790    -5.6760 h1         1 TNC       0.027533
     50 H23         -8.4480     1.5910    -3.7120 hn         1 TNC       0.260467
@<TRIPOS>BOND
     1     1     2 ar  
     2     1     6 ar  
     3     1     9 ar  
     4     2     3 ar  
     5     2    30 1   
     6     3     4 ar  
     7     3    31 1   
     8     4     5 ar  
     9     4    32 1   
    10     5     6 ar  
    11     5     7 1   
    12     6    10 ar  
    13     7    33 1   
    14     8     9 ar  
    15     8    11 ar  
    16     8    14 1   
    17     9    34 1   
    18    10    11 ar  
    19    10    12 1   
    20    11    15 1   
    21    12    35 1   
    22    13    14 1   
    23    13    16 1   
    24    13    18 1   
    25    13    36 1   
    26    14    37 1   
    27    14    38 1   
    28    15    16 2   
    29    15    17 1   
    30    16    21 1   
    31    17    39 1   
    32    18    19 1   
    33    18    27 1   
    34    18    40 1   
    35    19    20 1   
    36    19    24 2   
    37    20    21 2   
    38    20    23 1   
    39    21    22 1   
    40    22    41 1   
    41    23    25 1   
    42    23    26 2   
    43    25    42 1   
    44    25    43 1   
    45    25    50 1   
    46    27    28 1   
    47    27    29 1   
    48    28    44 1   
    49    28    45 1   
    50    28    46 1   
    51    29    47 1   
    52    29    48 1   
    53    29    49 1   
@<TRIPOS>SUBSTRUCTURE
     1 TNC         1 TEMP              0 ****  ****    0 ROOT
