@<TRIPOS>MOLECULE
TND
   73    78     1     0     0
SMALL
bcc


@<TRIPOS>ATOM
      1 C5'          0.0000     0.0000     0.0000 c3         1 TND       0.220400
      2 C4'          1.5290     0.0000     0.0000 c3         1 TND       0.141100
      3 O4'          2.0220     0.0000     1.3500 os         1 TND      -0.376600
      4 C3'          2.0550    -1.2800    -0.6780 c3         1 TND       0.140100
      5 O3'          2.8470    -0.9570    -1.8220 oh         1 TND      -0.575800
      6 C2'          2.9240    -1.9560     0.4090 c3         1 TND      -0.033300
      7 N2'          4.1510    -2.5090    -0.1700 ns         1 TND      -0.160900
      8 C1'          3.2430    -0.7720     1.3560 c3         1 TND       0.146800
      9 N9A          3.5450    -1.2500     2.7060 na         1 TND       0.210000
     10 C8A          2.6380    -1.5180     3.6880 cc         1 TND       0.258700
     11 N7A          3.2520    -1.9260     4.7610 nd         1 TND      -0.492100
     12 C5A          4.5870    -1.9440     4.5360 ca         1 TND      -0.239200
     13 C6A          5.7140    -2.2830     5.3040 ca         1 TND       0.606200
     14 N6A          5.5750    -2.7170     6.6110 nu         1 TND      -0.456900
     15 N1A          6.9150    -2.1810     4.7460 nb         1 TND      -0.747000
     16 C2A          7.0570    -1.7680     3.5000 ca         1 TND       0.694900
     17 N3A          6.0310    -1.4400     2.7430 nb         1 TND      -0.696000
     18 C4A          4.7910    -1.5170     3.2130 ca         1 TND       0.269800
     19 C1           6.7610    -3.0670     7.3950 c3         1 TND       0.184800
     20 C9           7.2650    -1.8400     8.1080 ca         1 TND      -0.100300
     21 C8           7.2910    -0.6470     7.3980 ca         1 TND      -0.097000
     22 C7           7.7490     0.5110     7.9900 ca         1 TND      -0.105000
     23 C6           8.1870     0.4860     9.3010 ca         1 TND      -0.097000
     24 C2           6.3960    -4.1580     8.4010 c3         1 TND      -0.039400
     25 C10          7.7000    -1.8660     9.4130 ca         1 TND      -0.071300
     26 C5           8.1630    -0.6990    10.0080 ca         1 TND      -0.109000
     27 C3           7.5820    -4.3560     9.3520 c3         1 TND      -0.020400
     28 C4           7.6950    -3.1220    10.2440 c3         1 TND       0.031900
     29 C7B          4.1960    -3.8010    -0.5490 c          1 TND       0.600700
     30 O7B          3.2170    -4.5080    -0.4110 o          1 TND      -0.656100
     31 C6B          5.4340    -4.3560    -1.1350 ca         1 TND      -0.080600
     32 C5B          6.5590    -3.5470    -1.2890 ca         1 TND      -0.140000
     33 C4B          7.7160    -4.0710    -1.8420 ca         1 TND       0.167100
     34 O2M          8.8120    -3.2820    -1.9980 os         1 TND      -0.277400
     35 C2M          9.8290    -4.0980    -2.5790 c3         1 TND       0.217200
     36 C3B          7.7600    -5.4020    -2.2330 ca         1 TND      -0.324000
     37 C1B          5.4820    -5.6940    -1.5290 ca         1 TND      -0.140000
     38 C2B          6.6450    -6.2110    -2.0770 ca         1 TND       0.167100
     39 O1M          6.6940    -7.5130    -2.4600 os         1 TND      -0.277400
     40 C1M          8.0050    -7.7430    -2.9790 c3         1 TND       0.217200
     41 O5'         -0.4770     1.1900     0.6300 oh         1 TND      -0.577800
     42 H5'1        -0.3610    -0.0370    -1.0210 h1         1 TND      -0.006300
     43 H5'2        -0.3610    -0.8660     0.5420 h1         1 TND      -0.006300
     44 H4'          1.9020     0.8710    -0.5250 h1         1 TND       0.045700
     45 H3'          1.2290    -1.9250    -0.9530 h1         1 TND       0.029700
     46 HO3'         2.3160    -1.0110    -2.5980 ho         1 TND       0.401000
     47 H2'          2.3590    -2.7200     0.9300 h1         1 TND       0.083700
     48 HN2'         4.9540    -1.9230    -0.2930 hn         1 TND       0.199500
     49 H1'          4.0630    -0.1830     0.9620 h2         1 TND       0.059700
     50 H8A          1.5650    -1.4080     3.5900 h5         1 TND       0.041800
     51 H6A          4.6620    -2.8330     7.0040 hn         1 TND       0.311800
     52 H2A          8.0550    -1.6990     3.0840 h5         1 TND      -0.003900
     53 H1           7.5360    -3.4380     6.7350 h1         1 TND       0.067700
     54 H8           6.9480    -0.6250     6.3710 ha         1 TND       0.124000
     55 H7           7.7660     1.4380     7.4300 ha         1 TND       0.103000
     56 H6           8.5480     1.3920     9.7710 ha         1 TND       0.101000
     57 H21          6.2130    -5.0830     7.8680 hc         1 TND       0.024200
     58 H22          5.5340    -3.8360     8.9740 hc         1 TND       0.024200
     59 H5           8.5070    -0.7190    11.0350 ha         1 TND       0.103000
     60 H31          8.4890    -4.4530     8.7690 hc         1 TND       0.020700
     61 H32          7.3950    -5.2240     9.9730 hc         1 TND       0.020700
     62 H41          6.8510    -3.0950    10.9240 hc         1 TND       0.020200
     63 H42          8.6160    -3.1760    10.8120 hc         1 TND       0.020200
     64 H5B          6.5090    -2.4960    -1.0330 ha         1 TND       0.132500
     65 H2M1        10.7270    -3.5090    -2.7220 h1         1 TND       0.002033
     66 H2M2         9.4880    -4.4740    -3.5360 h1         1 TND       0.002033
     67 H2M3        10.0450    -4.9310    -1.9210 h1         1 TND       0.002033
     68 H3B          8.6670    -5.8090    -2.6640 ha         1 TND       0.164000
     69 H1B          4.6120    -6.3270    -1.4070 ha         1 TND       0.132500
     70 H1M1         8.1800    -7.0870    -3.8230 h1         1 TND       0.002033
     71 H1M2         8.7390    -7.5420    -2.2070 h1         1 TND       0.002033
     72 H1M3         8.0920    -8.7740    -3.2990 h1         1 TND       0.002033
     73 HO5'        -1.3900     1.3080     0.4290 ho         1 TND       0.392000
@<TRIPOS>BOND
     1     1     2 1   
     2     1    41 1   
     3     1    42 1   
     4     1    43 1   
     5     2     3 1   
     6     2     4 1   
     7     2    44 1   
     8     3     8 1   
     9     4     5 1   
    10     4     6 1   
    11     4    45 1   
    12     5    46 1   
    13     6     7 1   
    14     6     8 1   
    15     6    47 1   
    16     7    29 1   
    17     7    48 1   
    18     8     9 1   
    19     8    49 1   
    20     9    10 1   
    21     9    18 1   
    22    10    11 2   
    23    10    50 1   
    24    11    12 1   
    25    12    13 ar  
    26    12    18 ar  
    27    13    14 1   
    28    13    15 ar  
    29    14    19 1   
    30    14    51 1   
    31    15    16 ar  
    32    16    17 ar  
    33    16    52 1   
    34    17    18 ar  
    35    19    20 1   
    36    19    24 1   
    37    19    53 1   
    38    20    21 ar  
    39    20    25 ar  
    40    21    22 ar  
    41    21    54 1   
    42    22    23 ar  
    43    22    55 1   
    44    23    26 ar  
    45    23    56 1   
    46    24    27 1   
    47    24    57 1   
    48    24    58 1   
    49    25    26 ar  
    50    25    28 1   
    51    26    59 1   
    52    27    28 1   
    53    27    60 1   
    54    27    61 1   
    55    28    62 1   
    56    28    63 1   
    57    29    30 2   
    58    29    31 1   
    59    31    32 ar  
    60    31    37 ar  
    61    32    33 ar  
    62    32    64 1   
    63    33    34 1   
    64    33    36 ar  
    65    34    35 1   
    66    35    65 1   
    67    35    66 1   
    68    35    67 1   
    69    36    38 ar  
    70    36    68 1   
    71    37    38 ar  
    72    37    69 1   
    73    38    39 1   
    74    39    40 1   
    75    40    70 1   
    76    40    71 1   
    77    40    72 1   
    78    41    73 1   
@<TRIPOS>SUBSTRUCTURE
     1 TND         1 TEMP              0 ****  ****    0 ROOT
