@<TRIPOS>MOLECULE
molecule
   23    24     1     0     0
SMALL
bcc


@<TRIPOS>ATOM
      1 C1           0.0000     0.0000     0.0000 c3         1 TNE       0.150000
      2 C2           1.5490     0.0000     0.0000 c3         1 TNE      -0.145900
      3 C3           2.1290     0.0000     1.4760 c          1 TNE       0.567100
      4 O3           3.3170    -0.2690     1.6760 o          1 TNE      -0.539100
      5 C4           1.1650     0.3470     2.6930 c3         1 TNE      -0.145900
      6 C5          -0.3200     0.3190     2.2760 c3         1 TNE       0.150000
      7 C6          -0.7240    -1.1570     2.0390 c3         1 TNE      -0.112400
      8 C7          -0.5320    -1.3680     0.5270 c3         1 TNE      -0.112400
      9 N8          -0.4300     1.0160     0.9850 n3         1 TNE      -0.685600
     10 C9          -1.8320     1.4330     0.7270 c3         1 TNE       0.137100
     11 H1          -0.3930     0.2200    -0.9850 h1         1 TNE       0.070200
     12 H21          1.9030     0.8820    -0.5190 hc         1 TNE       0.069700
     13 H22          1.9030    -0.8820    -0.5190 hc         1 TNE       0.069700
     14 H41          1.3220    -0.3750     3.4850 hc         1 TNE       0.069700
     15 H42          1.4080     1.3360     3.0650 hc         1 TNE       0.069700
     16 H5          -0.9480     0.7830     3.0270 h1         1 TNE       0.070200
     17 H61         -1.7600    -1.3140     2.3150 hc         1 TNE       0.051700
     18 H62         -0.0770    -1.8210     2.6000 hc         1 TNE       0.051700
     19 H71         -1.4770    -1.6110     0.0570 hc         1 TNE       0.051700
     20 H72          0.1950    -2.1500     0.3450 hc         1 TNE       0.051700
     21 H91         -2.4810     0.5660     0.7690 h1         1 TNE       0.036700
     22 H92         -2.1400     2.1510     1.4780 h1         1 TNE       0.036700
     23 H93         -1.8990     1.8870    -0.2540 h1         1 TNE       0.036700
@<TRIPOS>BOND
     1     1     2 1
     2     1     8 1
     3     1     9 1
     4     1    11 1
     5     2     3 1
     6     2    12 1
     7     2    13 1
     8     3     4 2
     9     3     5 1
    10     5     6 1
    11     5    14 1
    12     5    15 1
    13     6     7 1
    14     6     9 1
    15     6    16 1
    16     7     8 1
    17     7    17 1
    18     7    18 1
    19     8    19 1
    20     8    20 1
    21     9    10 1
    22    10    21 1
    23    10    22 1
    24    10    23 1
@<TRIPOS>SUBSTRUCTURE
     1 TNE         1 TEMP              0 ****  ****    0 ROOT
