@<TRIPOS>MOLECULE
TNF
   19    19     1     0     0
SMALL
bcc


@<TRIPOS>ATOM
      1 C1           0.0000     0.0000     0.0000 ca         1 TNF       0.357100
      2 C2           1.3880     0.0000     0.0000 ca         1 TNF      -0.530200
      3 C3           2.0770     0.0000     1.1970 ca         1 TNF       0.147500
      4 C4           1.3850    -0.0010     2.3940 ca         1 TNF      -0.505200
      5 N4           2.1270    -0.0030     3.6760 no         1 TNF       1.047200
      6 N2           2.1280    -0.0000    -1.2810 no         1 TNF       1.051200
      7 O1          -0.6810     0.0010    -1.1760 oh         1 TNF      -0.452100
      8 O21          3.3460    -0.0000    -1.2810 o          1 TNF      -0.426250
      9 O22          1.5200     0.0000    -2.3370 o          1 TNF      -0.426250
     10 O41          3.3450    -0.0030     3.6750 o          1 TNF      -0.428500
     11 C6          -0.6910     0.0050     1.2030 ca         1 TNF      -0.530200
     12 C5           0.0030    -0.0010     2.3970 ca         1 TNF       0.147500
     13 O42          1.5190    -0.0030     4.7310 o          1 TNF      -0.428500
     14 N6          -2.1710     0.0060     1.2070 no         1 TNF       1.051200
     15 O61         -2.7780     0.0010     2.2630 o          1 TNF      -0.426250
     16 O62         -2.7830     0.0110     0.1540 o          1 TNF      -0.426250
     17 H3           3.1600     0.0000     1.1970 ha         1 TNF       0.165000
     18 H1          -0.8400    -0.8880    -1.4480 ho         1 TNF       0.448000
     19 H5          -0.5360     0.0010     3.3360 ha         1 TNF       0.165000
@<TRIPOS>BOND
     1     1     2 ar  
     2     1     7 1   
     3     1    11 ar  
     4     2     3 ar  
     5     2     6 1   
     6     3     4 ar  
     7     3    17 1   
     8     4     5 1   
     9     4    12 ar  
    10     5    10 1   
    11     5    13 1   
    12     6     8 1   
    13     6     9 1   
    14     7    18 1   
    15    11    12 ar  
    16    11    14 1   
    17    12    19 1   
    18    14    15 1   
    19    14    16 1   
@<TRIPOS>SUBSTRUCTURE
     1 TNF         1 TEMP              0 ****  ****    0 ROOT
