@<TRIPOS>MOLECULE
TNG
   20    19     1     0     0
SMALL
bcc


@<TRIPOS>ATOM
      1 O9           0.0000     0.0000     0.0000 o          1 TNG      -0.412250
      2 N3           1.2180     0.0000     0.0000 no         1 TNG       1.023200
      3 O8           1.8270     0.0000     1.0540 o          1 TNG      -0.412250
      4 O7           1.9260    -0.0060    -1.2270 os         1 TNG      -0.476000
      5 C3           1.0840    -0.0120    -2.3820 c3         1 TNG       0.220400
      6 C2           1.9510    -0.0180    -3.6430 c3         1 TNG       0.180100
      7 O4           2.6890    -1.2390    -3.7070 os         1 TNG      -0.472000
      8 N2           3.8860    -1.1510    -4.4600 no         1 TNG       1.019200
      9 O6           4.2000    -0.0950    -4.9820 o          1 TNG      -0.407000
     10 O5           4.6000    -2.1280    -4.5870 o          1 TNG      -0.407000
     11 C1           1.0550     0.1020    -4.8780 c3         1 TNG       0.220400
     12 O3           1.8690     0.2140    -6.0480 os         1 TNG      -0.476000
     13 N1           1.1340     0.3300    -7.2520 no         1 TNG       1.023200
     14 O2          -0.0840     0.3290    -7.2250 o          1 TNG      -0.412250
     15 O1           1.7190     0.4310    -8.3160 o          1 TNG      -0.412250
     16 H1           0.4590    -0.8970    -2.3690 h1         1 TNG       0.033450
     17 H2           0.4590     0.8720    -2.3780 h1         1 TNG       0.033450
     18 H3           2.6390     0.8190    -3.6130 h1         1 TNG       0.066700
     19 H4           0.4280    -0.7780    -4.9570 h1         1 TNG       0.033450
     20 H5           0.4310     0.9830    -4.7870 h1         1 TNG       0.033450
@<TRIPOS>BOND
     1     1     2 1   
     2     2     3 1   
     3     2     4 1   
     4     4     5 1   
     5     5     6 1   
     6     5    16 1   
     7     5    17 1   
     8     6     7 1   
     9     6    11 1   
    10     6    18 1   
    11     7     8 1   
    12     8     9 1   
    13     8    10 1   
    14    11    12 1   
    15    11    19 1   
    16    11    20 1   
    17    12    13 1   
    18    13    14 1   
    19    13    15 1   
@<TRIPOS>SUBSTRUCTURE
     1 TNG         1 TEMP              0 ****  ****    0 ROOT
