@<TRIPOS>MOLECULE
molecule
   60    63     1     0     0
SMALL
bcc


@<TRIPOS>ATOM
      1 C1           0.0000     0.0000     0.0000 c3         1 TNH      -0.124700
      2 C2           1.5270     0.0000     0.0000 c3         1 TNH      -0.084400
      3 C3           2.0120     0.0000     1.4540 c3         1 TNH      -0.085400
      4 C4           1.6980     1.3660     2.0640 c3         1 TNH      -0.020100
      5 C5           0.2550     1.7300     1.8310 ca         1 TNH      -0.188600
      6 C6          -0.5310     1.1060     0.8790 ca         1 TNH       0.455600
      7 N1          -1.7930     1.4590     0.7010 nb         1 TNH      -0.700000
      8 C7          -2.3780     2.4180     1.4190 ca         1 TNH       0.430600
      9 C8          -3.7230     2.7700     1.2080 ca         1 TNH      -0.164300
     10 C9          -4.2900     3.7520     1.9600 ca         1 TNH      -0.122000
     11 C10         -3.5590     4.4200     2.9390 ca         1 TNH      -0.129000
     12 C11         -2.2550     4.1060     3.1730 ca         1 TNH      -0.114000
     13 C12         -1.6390     3.0990     2.4160 ca         1 TNH      -0.187300
     14 C13         -0.2880     2.7400     2.6200 ca         1 TNH       0.169600
     15 N2           0.4780     3.3770     3.5830 nu         1 TNH      -0.826600
     16 C14          1.0500     4.6250     3.0600 c3         1 TNH       0.215800
     17 C15          1.9910     5.2320     4.1030 c3         1 TNH      -0.092400
     18 C16          2.5870     6.5310     3.5580 c3         1 TNH      -0.080400
     19 C17          3.5270     7.1390     4.6010 c3         1 TNH      -0.077400
     20 C18          4.1220     8.4380     4.0560 c3         1 TNH      -0.102400
     21 C19          5.0630     9.0450     5.0990 c3         1 TNH       0.113000
     22 N3           5.6340    10.2890     4.5770 ns         1 TNH      -0.583900
     23 C20          6.4960    11.0020     5.3280 c          1 TNH       0.675700
     24 O1           6.8000    10.6130     6.4390 o          1 TNH      -0.606100
     25 C21          7.0710    12.2580     4.8020 ca         1 TNH      -0.272900
     26 C22          7.9680    13.0070     5.5710 ca         1 TNH      -0.033000
     27 C23          8.4800    14.1750     5.0320 ca         1 TNH      -0.264300
     28 C24          8.0910    14.5600     3.7610 ca         1 TNH       0.439200
     29 N4           7.2430    13.8330     3.0590 nb         1 TNH      -0.696000
     30 C25          6.7350    12.7120     3.5260 ca         1 TNH       0.441200
     31 H1          -0.3560     0.1480    -1.0120 hc         1 TNH       0.063700
     32 H2          -0.3560    -0.9530     0.3730 hc         1 TNH       0.063700
     33 H3           1.8900     0.8870    -0.5040 hc         1 TNH       0.046200
     34 H4           1.8900    -0.8870    -0.5040 hc         1 TNH       0.046200
     35 H5           3.0810    -0.1730     1.4810 hc         1 TNH       0.045700
     36 H6           1.4970    -0.7740     2.0100 hc         1 TNH       0.045700
     37 H7           2.3320     2.1150     1.6060 hc         1 TNH       0.057200
     38 H8           1.8890     1.3320     3.1300 hc         1 TNH       0.057200
     39 H9          -4.3050     2.2600     0.4500 ha         1 TNH       0.148000
     40 H10         -5.3270     4.0200     1.7930 ha         1 TNH       0.132000
     41 H11         -4.0350     5.1980     3.5240 ha         1 TNH       0.129000
     42 H12         -1.6960     4.6320     3.9370 ha         1 TNH       0.129000
     43 H13          0.2520     5.3250     2.8430 h1         1 TNH       0.037700
     44 H14          2.7880     4.5330     4.3210 hc         1 TNH       0.047700
     45 H15          1.4370     5.4420     5.0100 hc         1 TNH       0.047700
     46 H16          1.7890     7.2310     3.3400 hc         1 TNH       0.044200
     47 H17          3.1400     6.3220     2.6510 hc         1 TNH       0.044200
     48 H18          2.9730     7.3480     5.5090 hc         1 TNH       0.047200
     49 H19          4.3250     6.4390     4.8180 hc         1 TNH       0.047200
     50 H20          4.6760     8.2290     3.1490 hc         1 TNH       0.046700
     51 H21          3.3240     9.1380     3.8390 hc         1 TNH       0.046700
     52 H22          5.8610     8.3450     5.3170 h1         1 TNH       0.055700
     53 H23          4.5090     9.2550     6.0060 h1         1 TNH       0.055700
     54 H24          5.3830    10.6100     3.6630 hn         1 TNH       0.313500
     55 H25          8.2560    12.6820     6.5640 ha         1 TNH       0.165000
     56 H26          9.1770    14.7810     5.5980 ha         1 TNH       0.145000
     57 H27          8.4870    15.4750     3.3370 h4         1 TNH       0.026100
     58 H28          6.0420    12.1420     2.9190 h4         1 TNH       0.017100
     59 HNW          0.2260     3.3080     4.5490 hn         1 TNH       0.427800
     60 HAQ          1.6040     4.4160     2.1530 h1         1 TNH       0.037700
@<TRIPOS>BOND
     1     2     3 1
     2     2     1 1
     3     3     4 1
     4     1     6 1
     5     4     5 1
     6     6     5 ar
     7     6     7 ar
     8     5    14 ar
     9     7     8 ar
    10    14    15 1
    11    14    13 ar
    12     8    13 ar
    13     8     9 ar
    14    15    16 1
    15    13    12 ar
    16     9    10 ar
    17    16    17 1
    18    17    18 1
    19    12    11 ar
    20    10    11 ar
    21    18    19 1
    22    19    20 1
    23    20    21 1
    24    21    22 1
    25    22    23 1
    26    24    23 2
    27    23    25 1
    28    25    26 ar
    29    25    30 ar
    30    26    27 ar
    31    30    29 ar
    32    27    28 ar
    33    29    28 ar
    34     1    31 1
    35     1    32 1
    36     2    33 1
    37     2    34 1
    38     3    35 1
    39     3    36 1
    40     4    37 1
    41     4    38 1
    42     9    39 1
    43    10    40 1
    44    11    41 1
    45    12    42 1
    46    16    43 1
    47    17    44 1
    48    17    45 1
    49    18    46 1
    50    18    47 1
    51    19    48 1
    52    19    49 1
    53    20    50 1
    54    20    51 1
    55    21    52 1
    56    21    53 1
    57    22    54 1
    58    26    55 1
    59    27    56 1
    60    28    57 1
    61    30    58 1
    62    15    59 1
    63    16    60 1
@<TRIPOS>SUBSTRUCTURE
     1 TNH         1 TEMP              0 ****  ****    0 ROOT
