@<TRIPOS>MOLECULE
TNK
   51    53     1     0     0
SMALL
bcc


@<TRIPOS>ATOM
      1 C1           0.0000     0.0000     0.0000 ca         1 TNK      -0.106300
      2 C2           1.3820     0.0000     0.0000 ca         1 TNK      -0.104000
      3 C3           2.0730     0.0000     1.1960 ca         1 TNK      -0.095500
      4 C4           1.3810     0.0010     2.3940 ca         1 TNK      -0.098000
      5 C5           0.0000     0.0030     2.3940 ca         1 TNK      -0.095500
      6 C6          -0.6920     0.0060     1.1980 ca         1 TNK      -0.104000
      7 C7          -1.0060    -1.4210    -1.7390 cc         1 TNK      -0.058600
      8 N8          -0.1200    -2.0520    -2.5690 n          1 TNK       0.026000
      9 C9          -0.3350    -3.3210    -2.9620 c          1 TNK       0.594500
     10 O9           0.4650    -3.8640    -3.6990 o          1 TNK      -0.719500
     11 N10         -1.4230    -3.9980    -2.5510 ns         1 TNK      -0.126500
     12 C11         -2.3180    -3.4120    -1.7290 c          1 TNK       0.627700
     13 O11         -3.3020    -4.0240    -1.3560 o          1 TNK      -0.657500
     14 C12         -2.1050    -2.0750    -1.3120 cd         1 TNK      -0.269400
     15 C13         -0.7540    -0.0000    -1.3050 c3         1 TNK       0.068100
     16 C14         -3.0920    -1.3970    -0.3980 c3         1 TNK       0.020500
     17 C15         -4.4560    -1.3210    -1.0850 c3         1 TNK      -0.004600
     18 C16         -3.2190    -2.1970     0.9000 c3         1 TNK      -0.004600
     19 C17          1.0730    -1.3410    -3.0330 c3         1 TNK       0.222800
     20 O17          2.1430    -1.5530    -2.1100 os         1 TNK      -0.390600
     21 C18          2.8390    -2.7220    -2.5450 c3         1 TNK       0.224700
     22 C19          3.9860    -3.0010    -1.6090 ca         1 TNK      -0.109300
     23 C20          3.7940    -3.8090    -0.5040 ca         1 TNK      -0.078500
     24 C21          4.8470    -4.0670     0.3540 ca         1 TNK      -0.105500
     25 C22          6.0900    -3.5160     0.1080 ca         1 TNK      -0.094000
     26 C23          6.2820    -2.7090    -0.9970 ca         1 TNK      -0.105500
     27 C24          5.2310    -2.4560    -1.8580 ca         1 TNK      -0.078500
     28 H2           1.9230    -0.0030    -0.9380 ha         1 TNK       0.126000
     29 H3           3.1560    -0.0010     1.1960 ha         1 TNK       0.105000
     30 H4           1.9230    -0.0000     3.3320 ha         1 TNK       0.102000
     31 H5          -0.5410     0.0060     3.3320 ha         1 TNK       0.105000
     32 H6          -1.7750     0.0070     1.1980 ha         1 TNK       0.126000
     33 HN1         -1.5670    -4.9410    -2.8530 hn         1 TNK       0.206500
     34 H131        -1.7000     0.5110    -1.1750 hc         1 TNK       0.040200
     35 H132        -0.1690     0.5100    -2.0600 hc         1 TNK       0.040200
     36 H14         -2.7450    -0.3960    -0.1720 hc         1 TNK       0.037700
     37 H151        -4.3250    -1.0160    -2.1160 hc         1 TNK       0.011533
     38 H152        -5.0800    -0.5990    -0.5710 hc         1 TNK       0.011533
     39 H153        -4.9310    -2.2950    -1.0550 hc         1 TNK       0.011533
     40 H161        -3.9750    -2.9630     0.7790 hc         1 TNK       0.011533
     41 H162        -3.5030    -1.5330     1.7070 hc         1 TNK       0.011533
     42 H163        -2.2680    -2.6610     1.1320 hc         1 TNK       0.011533
     43 H171         1.3580    -1.7140    -4.0100 h2         1 TNK       0.047200
     44 H172         0.8580    -0.2810    -3.1000 h2         1 TNK       0.047200
     45 H181         3.2200    -2.5640    -3.5460 h1         1 TNK       0.023700
     46 H182         2.1610    -3.5670    -2.5460 h1         1 TNK       0.023700
     47 H20          2.8190    -4.2410    -0.3110 ha         1 TNK       0.105000
     48 H21          4.6960    -4.7000     1.2210 ha         1 TNK       0.103500
     49 H22          6.9150    -3.7160     0.7820 ha         1 TNK       0.102000
     50 H23          7.2570    -2.2790    -1.1920 ha         1 TNK       0.103500
     51 H24          5.3810    -1.8240    -2.7240 ha         1 TNK       0.105000
@<TRIPOS>BOND
     1     1     2 ar  
     2     1     6 ar  
     3     1    15 1   
     4     2     3 ar  
     5     2    28 1   
     6     3     4 ar  
     7     3    29 1   
     8     4     5 ar  
     9     4    30 1   
    10     5     6 ar  
    11     5    31 1   
    12     6    32 1   
    13     7     8 1   
    14     7    14 2   
    15     7    15 1   
    16     8     9 1   
    17     8    19 1   
    18     9    10 2   
    19     9    11 1   
    20    11    12 1   
    21    11    33 1   
    22    12    13 2   
    23    12    14 1   
    24    14    16 1   
    25    15    34 1   
    26    15    35 1   
    27    16    17 1   
    28    16    18 1   
    29    16    36 1   
    30    17    37 1   
    31    17    38 1   
    32    17    39 1   
    33    18    40 1   
    34    18    41 1   
    35    18    42 1   
    36    19    20 1   
    37    19    43 1   
    38    19    44 1   
    39    20    21 1   
    40    21    22 1   
    41    21    45 1   
    42    21    46 1   
    43    22    23 ar  
    44    22    27 ar  
    45    23    24 ar  
    46    23    47 1   
    47    24    25 ar  
    48    24    48 1   
    49    25    26 ar  
    50    25    49 1   
    51    26    27 ar  
    52    26    50 1   
    53    27    51 1   
@<TRIPOS>SUBSTRUCTURE
     1 TNK         1 TEMP              0 ****  ****    0 ROOT
