@<TRIPOS>MOLECULE
molecule
   21    21     1     0     0
SMALL
bcc


@<TRIPOS>ATOM
      1 C1           0.0000     0.0000     0.0000 ca         1 TNL       0.109700
      2 C7          -0.7540     0.0010    -1.3040 c3         1 TNL      -0.078800
      3 C2           1.4020     0.0000     0.0000 ca         1 TNL      -0.221200
      4 N2           2.0740     0.0010    -1.1660 no         1 TNL       0.318700
      5 O21          3.1630     0.5440    -1.2420 o          1 TNL      -0.190750
      6 O22          1.5960    -0.5420    -2.1450 o          1 TNL      -0.190750
      7 C3           2.1040     0.0000     1.2140 ca         1 TNL       0.064000
      8 C4           1.4030    -0.0010     2.4290 ca         1 TNL      -0.226200
      9 N4           2.0770    -0.0020     3.5940 no         1 TNL       0.324200
     10 O41          1.4690    -0.0040     4.6490 o          1 TNL      -0.195500
     11 O42          3.2940    -0.0030     3.5940 o          1 TNL      -0.195500
     12 C5           0.0010    -0.0020     2.4300 ca         1 TNL       0.064000
     13 C6          -0.7000     0.0040     1.2150 ca         1 TNL      -0.221200
     14 N6          -2.0470     0.0040     1.2160 no         1 TNL       0.318700
     15 O61         -2.6550     0.5500     2.1180 o          1 TNL      -0.190750
     16 O62         -2.6560    -0.5410     0.3130 o          1 TNL      -0.190750
     17 H7C1        -0.9350    -1.0200    -1.6180 hc         1 TNL       0.093033
     18 H7C2        -1.7000     0.5120    -1.1740 hc         1 TNL       0.093033
     19 H7C3        -0.1690     0.5120    -2.0590 hc         1 TNL       0.093033
     20 H3           3.1870    -0.0000     1.2130 ha         1 TNL       0.212000
     21 H5          -0.5410    -0.0010     3.3680 ha         1 TNL       0.212000
@<TRIPOS>BOND
     1     1     2 1
     2     1     3 ar
     3     1    13 ar
     4     2    17 1
     5     2    18 1
     6     2    19 1
     7     3     4 1
     8     3     7 ar
     9     4     5 1
    10     4     6 1
    11     7     8 ar
    12     7    20 1
    13     8     9 1
    14     8    12 ar
    15     9    10 1
    16     9    11 1
    17    12    13 ar
    18    12    21 1
    19    13    14 1
    20    14    15 1
    21    14    16 1
@<TRIPOS>SUBSTRUCTURE
     1 TNL         1 TEMP              0 ****  ****    0 ROOT
