@<TRIPOS>MOLECULE
molecule
   35    36     1     0     0
SMALL
bcc


@<TRIPOS>ATOM
      1 PA           0.0000     0.0000     0.0000 p5         1 TNM       1.246600
      2 O1A          1.6100     0.0000     0.0000 o          1 TNM      -0.847500
      3 O2A         -0.4940     0.0000     1.3950 o          1 TNM      -0.847500
      4 O3A         -0.5370    -1.3130    -0.7600 os         1 TNM      -0.719800
      5 PB          -0.3660    -2.8960    -0.5150 p5         1 TNM       1.290900
      6 O1B          1.1130    -3.3500    -0.9650 o          1 TNM      -0.945833
      7 O2B         -0.5580    -3.1980     0.9210 o          1 TNM      -0.945833
      8 O3B         -1.4600    -3.6960    -1.3840 o          1 TNM      -0.945833
      9 C9'         -0.6070     1.4890    -0.8590 c3         1 TNM      -0.062800
     10 O9'         -0.0290     2.6520    -0.2620 os         1 TNM      -0.395600
     11 C8'         -1.8720     3.8550     0.7380 c3         1 TNM      -0.119100
     12 C7'         -0.6170     3.0160     0.9880 c3         1 TNM       0.101100
     13 C6'          0.3860     3.8320     1.8050 c3         1 TNM       0.067300
     14 N9           1.5370     2.9900     2.1480 na         1 TNM      -0.233000
     15 C4           2.6360     2.7610     1.3620 ca         1 TNM       0.518800
     16 N3           3.0280     3.1590     0.1550 nb         1 TNM      -0.760000
     17 C2           4.1760     2.7550    -0.3450 ca         1 TNM       0.723900
     18 N1           4.9890     1.9460     0.3100 nb         1 TNM      -0.850000
     19 C6           4.6830     1.4960     1.5220 ca         1 TNM       0.798200
     20 N6           5.5420     0.6500     2.2010 nv         1 TNM      -1.007500
     21 C5           3.4670     1.9010     2.0990 ca         1 TNM      -0.157200
     22 N7           2.8430     1.6540     3.2760 nc         1 TNM      -0.596100
     23 C8           1.7110     2.2970     3.3080 cd         1 TNM       0.435700
     24 H9'         -0.3270     1.4430    -1.9040 h1         1 TNM       0.029200
     25 H9'A        -1.6860     1.5390    -0.7760 h1         1 TNM       0.029200
     26 H8'         -1.8310     4.7560     1.3390 hc         1 TNM       0.018033
     27 H8'A        -1.9250     4.1220    -0.3100 hc         1 TNM       0.018033
     28 H8'B        -2.7500     3.2810     1.0090 hc         1 TNM       0.018033
     29 H7'         -0.8850     2.1210     1.5360 h1         1 TNM       0.133700
     30 H6'          0.7210     4.6810     1.2220 h1         1 TNM       0.032200
     31 H6'A        -0.0880     4.1820     2.7140 h1         1 TNM       0.032200
     32 H2           4.4640     3.0980    -1.3310 h5         1 TNM       0.025100
     33 HN6          6.4940     0.5630     1.9060 hn         1 TNM       0.429300
     34 HN6A         5.2060     0.1140     2.9760 hn         1 TNM       0.429300
     35 H8           1.0110     2.2830     4.1350 h5         1 TNM       0.056800
@<TRIPOS>BOND
     1     9     1 1
     2     3     1 1
     3     1     4 1
     4     1     2 1
     5     4     5 1
     6     5     7 1
     7     5     8 1
     8     5     6 1
     9    10     9 1
    10     9    24 1
    11     9    25 1
    12    10    12 1
    13    11    12 1
    14    11    26 1
    15    11    27 1
    16    11    28 1
    17    13    12 1
    18    12    29 1
    19    14    13 1
    20    13    30 1
    21    13    31 1
    22    15    14 1
    23    23    14 1
    24    21    15 ar
    25    15    16 ar
    26    17    16 ar
    27    18    17 ar
    28    17    32 1
    29    19    18 ar
    30    20    19 1
    31    19    21 ar
    32    20    33 1
    33    20    34 1
    34    21    22 1
    35    22    23 2
    36    23    35 1
@<TRIPOS>SUBSTRUCTURE
     1 TNM         1 TEMP              0 ****  ****    0 ROOT
