@<TRIPOS>MOLECULE
molecule
   55    60     1     0     0
SMALL
bcc


@<TRIPOS>ATOM
      1 CAB          0.0000     0.0000     0.0000 c3         1 TNN      -0.159100
      2 CBF          1.5310     0.0000     0.0000 c3         1 TNN       0.154100
      3 OAG          2.0060     0.0000     1.3470 oh         1 TNN      -0.589800
      4 CBJ          2.0490    -1.2690    -0.7330 cx         1 TNN       0.051800
      5 OAT          1.2830    -2.4180    -0.3870 op         1 TNN      -0.326600
      6 CBI          1.1590    -1.9710    -1.7410 cx         1 TNN       0.113100
      7 CAY          1.8340    -2.9520    -2.6710 ca         1 TNN      -0.083300
      8 CAQ          1.1010    -3.8560    -3.3970 ca         1 TNN      -0.112000
      9 CAU          1.7380    -4.8310    -4.1640 ca         1 TNN       0.140100
     10 OAE          1.0080    -5.7160    -4.8880 oh         1 TNN      -0.485100
     11 CBC          3.1340    -4.8890    -4.1810 ca         1 TNN      -0.135600
     12 CAZ          3.8230    -5.9650    -4.9140 c          1 TNN       0.590300
     13 OAC          3.1810    -6.7730    -5.5580 o          1 TNN      -0.498100
     14 CBB          5.2940    -6.0600    -4.8670 ca         1 TNN      -0.154600
     15 CAP          5.9470    -7.1340    -5.4640 ca         1 TNN      -0.060000
     16 CAO          7.3270    -7.2180    -5.4260 ca         1 TNN      -0.199000
     17 CAW          8.0720    -6.2340    -4.7970 ca         1 TNN       0.098100
     18 OAS          9.4270    -6.3250    -4.7720 os         1 TNN      -0.324900
     19 CAA         10.0130    -7.4600    -5.4130 c3         1 TNN       0.128700
     20 CAV          7.4350    -5.1470    -4.1870 ca         1 TNN       0.137100
     21 OAF          8.1680    -4.1840    -3.5750 oh         1 TNN      -0.474100
     22 CBD          6.0430    -5.0600    -4.2130 ca         1 TNN      -0.120600
     23 CBA          5.3540    -3.9420    -3.5440 c          1 TNN       0.579300
     24 OAD          6.0000    -3.0500    -3.0270 o          1 TNN      -0.463100
     25 CBE          3.8840    -3.9070    -3.5020 ca         1 TNN      -0.123600
     26 CAX          3.2260    -2.9140    -2.7610 ca         1 TNN       0.169600
     27 NAR          3.9220    -1.8910    -2.1960 nu         1 TNN      -0.723600
     28 CBH          3.5420    -1.2670    -0.9630 c3         1 TNN       0.345600
     29 CAL          3.9350     0.1840    -1.0930 c1         1 TNN      -0.096100
     30 CAJ          3.6890     1.2510    -1.6090 cg         1 TNN      -0.172300
     31 CAN          2.8830     2.4030    -1.9070 ce         1 TNN       0.005300
     32 CAM          1.6800     2.2980    -2.4960 cf         1 TNN      -0.021700
     33 CAI          1.1260     1.0310    -2.8850 ch         1 TNN      -0.133300
     34 CAK          0.4080     0.0680    -2.8420 c1         1 TNN      -0.154100
     35 CBG         -0.0610    -1.2230    -2.2690 c3         1 TNN       0.252200
     36 OAH         -0.7020    -1.9980    -3.2830 oh         1 TNN      -0.595800
     37 HAF         -0.3610    -1.0180     0.0780 hc         1 TNN       0.054700
     38 HAD         -0.3610     0.4410    -0.9210 hc         1 TNN       0.054700
     39 HAE         -0.3610     0.5770     0.8430 hc         1 TNN       0.054700
     40 HBF          1.8920     0.8850    -0.5100 h1         1 TNN       0.060700
     41 HAG          1.7820     0.8180     1.7600 ho         1 TNN       0.408000
     42 HAQ          0.0190    -3.8240    -3.3590 ha         1 TNN       0.172000
     43 HBI          0.4590    -5.2470    -5.4960 ho         1 TNN       0.425000
     44 HAP          5.3720    -7.9080    -5.9580 ha         1 TNN       0.158000
     45 HAO          7.8280    -8.0570    -5.8930 ha         1 TNN       0.144000
     46 HAA          9.6510    -8.3670    -4.9420 h1         1 TNN       0.045700
     47 HAB         11.0910    -7.4110    -5.3200 h1         1 TNN       0.045700
     48 HAC          9.7400    -7.4640    -6.4610 h1         1 TNN       0.045700
     49 HBJ          8.7180    -4.5760    -2.9180 ho         1 TNN       0.427000
     50 HAR          4.1000    -1.1870    -2.8850 hn         1 TNN       0.417800
     51 HBH          4.0570    -1.7270    -0.1280 h1         1 TNN       0.112700
     52 HAN          3.2550     3.3850    -1.6440 ha         1 TNN       0.149000
     53 HAM          1.1080     3.1990    -2.6820 ha         1 TNN       0.154000
     54 HBG         -0.7510    -1.0320    -1.4560 h1         1 TNN       0.097700
     55 HAH         -1.5950    -1.7090    -3.3830 ho         1 TNN       0.413000
@<TRIPOS>BOND
     1     1     2 1
     2     2     3 1
     3     2     4 1
     4     4     5 1
     5     4     6 1
     6     4    28 1
     7     5     6 1
     8     6     7 1
     9     6    35 1
    10     7     8 ar
    11     7    26 ar
    12     8     9 ar
    13     9    10 1
    14     9    11 ar
    15    11    12 1
    16    11    25 ar
    17    12    13 2
    18    12    14 1
    19    14    15 ar
    20    14    22 ar
    21    15    16 ar
    22    16    17 ar
    23    17    18 1
    24    17    20 ar
    25    18    19 1
    26    20    21 1
    27    20    22 ar
    28    22    23 1
    29    23    24 2
    30    23    25 1
    31    25    26 ar
    32    26    27 1
    33    27    28 1
    34    28    29 1
    35    30    31 1
    36    31    32 2
    37    32    33 1
    38    34    35 1
    39    35    36 1
    40    29    30 3
    41     1    37 1
    42     1    38 1
    43     1    39 1
    44     2    40 1
    45     3    41 1
    46     8    42 1
    47    10    43 1
    48    15    44 1
    49    16    45 1
    50    19    46 1
    51    19    47 1
    52    19    48 1
    53    21    49 1
    54    27    50 1
    55    28    51 1
    56    31    52 1
    57    32    53 1
    58    35    54 1
    59    36    55 1
    60    33    34 3
@<TRIPOS>SUBSTRUCTURE
     1 TNN         1 TEMP              0 ****  ****    0 ROOT
