@<TRIPOS>MOLECULE
TNP
   38    40     1     0     0
SMALL
bcc


@<TRIPOS>ATOM
      1 N1          0.0590   -0.2040   -0.0140 nb        1 TNP     -0.685000
      2 C2          1.3790   -0.2690    0.0350 ca        1 TNP      0.434200
      3 C3          2.1360   -0.1700    1.2440 ca        1 TNP     -0.137600
      4 C4          1.4310   -0.0020    2.4200 ca        1 TNP     -0.093000
      5 C5         -0.7310    0.1770    3.6340 ca        1 TNP     -0.012300
      6 C6         -2.0950    0.0200    3.6180 ca        1 TNP     -0.069300
      7 C7         -4.2230   -0.0780    2.3750 ca        1 TNP     -0.022000
      8 C8         -4.9360   -0.0740    1.1830 ca        1 TNP     -0.092300
      9 C9         -4.2090    0.0250   -0.0180 ca        1 TNP     -0.031300
     10 N10        -2.8520    0.0860   -0.0580 na        1 TNP      0.059900
     11 C11        -2.1120    0.0160    1.1210 ca        1 TNP     -0.010600
     12 C12        -0.6500   -0.0320    1.1510 ca        1 TNP      0.368600
     13 C13         0.0110    0.0680    2.4080 ca        1 TNP     -0.095300
     14 C14        -2.8110   -0.0290    2.3700 ca        1 TNP     -0.034000
     15 C15         3.6080   -0.2550    1.1970 c3        1 TNP     -0.070800
     16 C16         0.0110    0.4400    4.8920 c3        1 TNP     -0.077800
     17 C17        -2.8770   -0.0970    4.8760 c3        1 TNP     -0.071800
     18 C18        -6.4110   -0.1640    1.1430 c3        1 TNP     -0.069800
     19 C19        -2.2520    0.2680   -1.3780 c3        1 TNP     -0.015400
     20 H2          1.8980   -0.4150   -0.9330 h4        1 TNP      0.048100
     21 H4          1.9720    0.0570    3.3790 ha        1 TNP      0.166000
     22 H7         -4.7770   -0.1090    3.3310 ha        1 TNP      0.183000
     23 H9         -4.7520    0.0670   -0.9870 h4        1 TNP      0.201000
     24 H151        4.0560   -0.1680    2.2180 hc        1 TNP      0.068700
     25 H152        3.9250   -1.2330    0.7540 hc        1 TNP      0.068700
     26 H153        4.0220    0.5670    0.5590 hc        1 TNP      0.068700
     27 H161        0.8630    1.1430    4.7110 hc        1 TNP      0.069033
     28 H162        0.4170   -0.5170    5.3100 hc        1 TNP      0.069033
     29 H163       -0.6430    0.9160    5.6630 hc        1 TNP      0.069033
     30 H171       -3.4320    0.8530    5.0840 hc        1 TNP      0.065033
     31 H172       -3.6100   -0.9400    4.8080 hc        1 TNP      0.065033
     32 H173       -2.2190   -0.3170    5.7540 hc        1 TNP      0.065033
     33 H181       -6.8600    0.2460    2.0830 hc        1 TNP      0.075700
     34 H182       -6.7250   -1.2360    1.0440 hc        1 TNP      0.075700
     35 H183       -6.8280    0.4060    0.2750 hc        1 TNP      0.075700
     36 H191       -1.7190   -0.6720   -1.6850 h1        1 TNP      0.098367
     37 H192       -3.0550    0.4900   -2.1330 h1        1 TNP      0.098367
     38 H193       -1.5390    1.1360   -1.3540 h1        1 TNP      0.098367
@<TRIPOS>BOND
     1    1    2 ar  
     2    1   12 ar  
     3    2    3 ar  
     4    2   20 1   
     5    3    4 ar  
     6    3   15 1   
     7    4   13 ar  
     8    4   21 1   
     9    5    6 ar  
    10    5   13 ar  
    11    5   16 1   
    12    6   14 ar  
    13    6   17 1   
    14    7    8 ar  
    15    7   14 ar  
    16    7   22 1   
    17    8    9 ar  
    18    8   18 1   
    19    9   10 1   
    20    9   23 1   
    21   10   11 2   
    22   10   19 1   
    23   11   12 ar  
    24   11   14 ar  
    25   12   13 ar  
    26   15   24 1   
    27   15   25 1   
    28   15   26 1   
    29   16   27 1   
    30   16   28 1   
    31   16   29 1   
    32   17   30 1   
    33   17   31 1   
    34   17   32 1   
    35   18   33 1   
    36   18   34 1   
    37   18   35 1   
    38   19   36 1   
    39   19   37 1   
    40   19   38 1   
@<TRIPOS>SUBSTRUCTURE
     1 TNP         1 TEMP              0 ****  ****    0 ROOT
