@<TRIPOS>MOLECULE
molecule
   38    40     1     0     0
SMALL
bcc


@<TRIPOS>ATOM
      1 N1           0.0000     0.0000     0.0000 nb         1 TNP      -0.708000
      2 C2           1.3140     0.0000     0.0000 ca         1 TNP       0.454200
      3 C3           2.0400     0.0000     1.1850 ca         1 TNP      -0.164600
      4 C4           1.3840     0.0000     2.3870 ca         1 TNP      -0.073000
      5 C5          -0.7560    -0.0000     3.5840 ca         1 TNP      -0.016300
      6 C6          -2.1040    -0.0000     3.5820 ca         1 TNP      -0.089300
      7 C7          -4.2420     0.0000     2.3770 ca         1 TNP      -0.026000
      8 C8          -4.8930     0.0000     1.1740 ca         1 TNP      -0.100300
      9 C9          -4.1620     0.0000    -0.0090 ca         1 TNP      -0.040300
     10 N10         -2.8490     0.0000    -0.0040 na         1 TNP       0.101900
     11 C11         -2.1600     0.0000     1.1330 ca         1 TNP      -0.044600
     12 C12         -0.6920     0.0000     1.1360 ca         1 TNP       0.390600
     13 C13         -0.0200     0.0000     2.3780 ca         1 TNP      -0.112300
     14 C14         -2.8370     0.0000     2.3730 ca         1 TNP      -0.014000
     15 C15          3.5460    -0.0010     1.1480 c3         1 TNP      -0.056800
     16 C16         -0.0190     0.0010     4.8980 c3         1 TNP      -0.066800
     17 C17         -2.8460    -0.0000     4.8940 c3         1 TNP      -0.057800
     18 C18         -6.4000    -0.0010     1.1310 c3         1 TNP      -0.052800
     19 C19         -2.1270     0.0010    -1.2790 c3         1 TNP      -0.005400
     20 H2           1.8430     0.0000    -0.9450 h4         1 TNP       0.047100
     21 H4           1.9350    -0.0000     3.3200 ha         1 TNP       0.168000
     22 H7          -4.7950     0.0000     3.3080 ha         1 TNP       0.184000
     23 H9          -4.6880     0.0000    -0.9560 h4         1 TNP       0.200000
     24 H151         3.9190     0.9210     1.5780 hc         1 TNP       0.063700
     25 H152         3.9210    -0.8430     1.7170 hc         1 TNP       0.063700
     26 H153         3.8820    -0.0810     0.1210 hc         1 TNP       0.063700
     27 H161        -0.6640     0.3980     5.6730 hc         1 TNP       0.066033
     28 H162         0.2680    -1.0120     5.1520 hc         1 TNP       0.066033
     29 H163         0.8670     0.6180     4.8150 hc         1 TNP       0.066033
     30 H171        -2.2150    -0.4240     5.6660 hc         1 TNP       0.062033
     31 H172        -3.7480    -0.5930     4.8000 hc         1 TNP       0.062033
     32 H173        -3.1080     1.0170     5.1610 hc         1 TNP       0.062033
     33 H181        -6.7670     1.0020     1.3130 hc         1 TNP       0.071033
     34 H182        -6.7820    -0.6700     1.8930 hc         1 TNP       0.071033
     35 H183        -6.7330    -0.3360     0.1560 hc         1 TNP       0.071033
     36 H191        -1.4840     0.8720    -1.3290 h1         1 TNP       0.097033
     37 H192        -1.5250    -0.8970    -1.3540 h1         1 TNP       0.097033
     38 H193        -2.8370     0.0290    -2.0960 h1         1 TNP       0.097033
@<TRIPOS>BOND
     1     1     2 ar
     2     1    12 ar
     3     2     3 ar
     4     2    20 1
     5     3     4 ar
     6     3    15 1
     7     4    13 ar
     8     4    21 1
     9     5     6 ar
    10     5    13 ar
    11     5    16 1
    12     6    14 ar
    13     6    17 1
    14     7     8 ar
    15     7    14 ar
    16     7    22 1
    17     8     9 ar
    18     8    18 1
    19     9    10 1
    20     9    23 1
    21    10    11 2
    22    10    19 1
    23    11    12 ar
    24    11    14 ar
    25    12    13 ar
    26    15    24 1
    27    15    25 1
    28    15    26 1
    29    16    27 1
    30    16    28 1
    31    16    29 1
    32    17    30 1
    33    17    31 1
    34    17    32 1
    35    18    33 1
    36    18    34 1
    37    18    35 1
    38    19    36 1
    39    19    37 1
    40    19    38 1
@<TRIPOS>SUBSTRUCTURE
     1 TNP         1 TEMP              0 ****  ****    0 ROOT
