@<TRIPOS>MOLECULE
TNS
   47    50     1     0     0
SMALL
bcc


@<TRIPOS>ATOM
      1 O22          0.0000     0.0000     0.0000 o          1 TNS      -0.639500
      2 C20          1.2240     0.0000     0.0000 c2         1 TNS       0.405000
      3 O21          1.9700     0.0000     1.1330 o          1 TNS      -0.639500
      4 C19          2.0680    -0.0050    -1.2500 c3         1 TNS      -0.158000
      5 C18          1.2250     0.0470    -2.5220 c3         1 TNS      -0.093000
      6 C17          2.0800    -0.0290    -3.7920 c3         1 TNS      -0.141000
      7 C16          1.2450     0.0290    -5.0680 c3         1 TNS      -0.078000
      8 N15          2.0410    -0.0750    -6.2610 n3         1 TNS       0.040000
      9 C23          2.1950    -1.3880    -6.8950 c3         1 TNS      -0.075000
     10 C14          2.6790     1.0450    -6.8210 c2         1 TNS       0.002000
     11 C13          2.5410     2.3030    -6.2270 c2         1 TNS      -0.171500
     12 C12          3.1760     3.4140    -6.7830 c2         1 TNS      -0.082000
     13 C9           3.4570     0.9060    -7.9740 c2         1 TNS      -0.171500
     14 C10          4.0920     2.0170    -8.5280 c2         1 TNS      -0.082000
     15 C11          3.9520     3.2710    -7.9330 c3         1 TNS      -0.041000
     16 C8           4.6130     4.4290    -8.5120 c2         1 TNS      -0.123000
     17 C7           4.8790     5.5850    -7.8590 c2         1 TNS      -0.055000
     18 C3           5.5670     6.7500    -8.4400 c3         1 TNS       0.058000
     19 C2           5.6220     6.8890    -9.8170 c2         1 TNS      -0.187500
     20 C4           6.1470     7.6860    -7.5980 c2         1 TNS      -0.187500
     21 C5           6.7970     8.7900    -8.1480 c2         1 TNS       0.036000
     22 C6           6.8600     8.9440    -9.5330 c2         1 TNS      -0.474000
     23 C1           6.2730     7.9930   -10.3670 c2         1 TNS       0.036000
     24 N24          7.5220    10.0690   -10.0930 no         1 TNS       1.293000
     25 O26          8.0440    10.9120    -9.3240 o          1 TNS      -0.618500
     26 O25          7.5670    10.1880   -11.3410 o          1 TNS      -0.618500
     27 H191         2.7270     0.8540    -1.2310 hc         1 TNS       0.047000
     28 H192         2.6670    -0.9080    -1.2640 hc         1 TNS       0.047000
     29 H181         0.5300    -0.7840    -2.5170 hc         1 TNS       0.054000
     30 H182         0.6630     0.9740    -2.5320 hc         1 TNS       0.054000
     31 H171         2.6380    -0.9570    -3.7820 hc         1 TNS       0.051500
     32 H172         2.7780     0.8000    -3.7940 hc         1 TNS       0.051500
     33 H161         0.5300    -0.7840    -5.0540 h1         1 TNS       0.062500
     34 H162         0.7050     0.9680    -5.0900 h1         1 TNS       0.062500
     35 H231         3.2380    -1.6810    -6.8700 h1         1 TNS       0.044667
     36 H232         1.8600    -1.3340    -7.9240 h1         1 TNS       0.044667
     37 H233         1.6020    -2.1200    -6.3600 h1         1 TNS       0.044667
     38 H13          1.9280     2.4180    -5.3420 ha         1 TNS       0.126500
     39 H12          3.0800     4.3840    -6.3120 ha         1 TNS       0.112500
     40 H9           3.5660    -0.0660    -8.4380 ha         1 TNS       0.126500
     41 H10          4.7020     1.9050    -9.4170 ha         1 TNS       0.112500
     42 H8           3.5980     4.4370    -8.1360 DU         1 TNS       0.113000
     43 H7           4.4980     6.1590    -8.6940 DU         1 TNS       0.086000
     44 H2           5.1640     6.1480   -10.4610 ha         1 TNS       0.132000
     45 H4           6.0950     7.5610    -6.5230 ha         1 TNS       0.132000
     46 H5           7.2530     9.5280    -7.5000 ha         1 TNS       0.131000
     47 H1           6.3220     8.1130   -11.4430 ha         1 TNS       0.131000
@<TRIPOS>BOND
     1     1     2 1   
     2     2     3 1   
     3     2     4 1   
     4     4     5 1   
     5     4    27 1   
     6     4    28 1   
     7     5     6 1   
     8     5    29 1   
     9     5    30 1   
    10     6     7 1   
    11     6    31 1   
    12     6    32 1   
    13     7     8 1   
    14     7    33 1   
    15     7    34 1   
    16     8     9 1   
    17     8    10 1   
    18     9    35 1   
    19     9    36 1   
    20     9    37 1   
    21    10    11 1   
    22    10    13 1   
    23    11    12 1   
    24    11    38 1   
    25    12    15 1   
    26    12    39 1   
    27    13    14 1   
    28    13    40 1   
    29    14    15 1   
    30    14    41 1   
    31    15    16 1   
    32    15    42 1   
    33    16    17 1   
    34    16    42 1   
    35    17    18 1   
    36    17    43 1   
    37    18    19 1   
    38    18    20 1   
    39    18    43 1   
    40    19    23 1   
    41    19    44 1   
    42    20    21 1   
    43    20    45 1   
    44    21    22 1   
    45    21    46 1   
    46    22    23 1   
    47    22    24 1   
    48    23    47 1   
    49    24    25 1   
    50    24    26 1   
@<TRIPOS>SUBSTRUCTURE
     1 TNS         1 TEMP              0 ****  ****    0 ROOT
