@<TRIPOS>MOLECULE
molecule
   47    48     1     0     0
SMALL
bcc


@<TRIPOS>ATOM
      1 O22          0.0000     0.0000     0.0000 o          1 TNS      -0.854800
      2 C20          1.2240     0.0000     0.0000 c          1 TNS       0.893600
      3 O21          1.9700     0.0000     1.1330 o          1 TNS      -0.854800
      4 C19          2.0680    -0.0050    -1.2500 c3         1 TNS      -0.173400
      5 C18          1.2250     0.0470    -2.5220 c3         1 TNS      -0.068400
      6 C17          2.0800    -0.0290    -3.7920 c3         1 TNS      -0.114400
      7 C16          1.2450     0.0290    -5.0680 c3         1 TNS       0.227800
      8 N15          2.0410    -0.0750    -6.2610 nh         1 TNS      -0.716000
      9 C23          2.1950    -1.3880    -6.8950 c3         1 TNS       0.225100
     10 C14          2.6790     1.0450    -6.8210 ca         1 TNS       0.230600
     11 C13          2.5410     2.3030    -6.2270 ca         1 TNS      -0.211500
     12 C12          3.1760     3.4140    -6.7830 ca         1 TNS      -0.060500
     13 C9           3.4570     0.9060    -7.9740 ca         1 TNS      -0.211500
     14 C10          4.0920     2.0170    -8.5280 ca         1 TNS      -0.060500
     15 C11          3.9520     3.2710    -7.9330 ca         1 TNS      -0.152800
     16 C8           4.6130     4.4290    -8.5120 ce         1 TNS      -0.029200
     17 C7           4.8790     5.5850    -7.8590 cf         1 TNS      -0.188200
     18 C3           5.5670     6.7500    -8.4400 ca         1 TNS       0.027200
     19 C2           5.6220     6.8890    -9.8170 ca         1 TNS      -0.144000
     20 C4           6.1470     7.6860    -7.5980 ca         1 TNS      -0.144000
     21 C5           6.7970     8.7900    -8.1480 ca         1 TNS      -0.055500
     22 C6           6.8600     8.9440    -9.5330 ca         1 TNS      -0.186200
     23 C1           6.2730     7.9930   -10.3670 ca         1 TNS      -0.055500
     24 N24          7.5220    10.0690   -10.0930 no         1 TNS       0.281200
     25 O26          8.0440    10.9120    -9.3240 o          1 TNS      -0.217500
     26 O25          7.5670    10.1880   -11.3410 o          1 TNS      -0.217500
     27 H191         2.6670    -0.9080    -1.2640 hc         1 TNS       0.031200
     28 H192         2.7270     0.8540    -1.2310 hc         1 TNS       0.031200
     29 H181         0.5300    -0.7840    -2.5170 hc         1 TNS       0.039700
     30 H182         0.6630     0.9740    -2.5320 hc         1 TNS       0.039700
     31 H171         2.7780     0.8000    -3.7940 hc         1 TNS       0.037700
     32 H172         2.6380    -0.9570    -3.7820 hc         1 TNS       0.037700
     33 H161         0.7050     0.9680    -5.0900 h1         1 TNS       0.046700
     34 H162         0.5300    -0.7840    -5.0540 h1         1 TNS       0.046700
     35 H231         1.8600    -1.3340    -7.9240 h1         1 TNS       0.034367
     36 H232         1.6020    -2.1200    -6.3600 h1         1 TNS       0.034367
     37 H233         3.2380    -1.6810    -6.8700 h1         1 TNS       0.034367
     38 H13          1.9280     2.4180    -5.3420 ha         1 TNS       0.142500
     39 H12          3.0420     4.3920    -6.3380 ha         1 TNS       0.127500
     40 H9           3.5660    -0.0660    -8.4380 ha         1 TNS       0.142500
     41 H10          4.7000     1.9050    -9.4180 ha         1 TNS       0.127500
     42 H8           4.9280     4.3470    -9.5460 ha         1 TNS       0.112000
     43 H7           4.5780     5.6610    -6.8210 ha         1 TNS       0.136000
     44 H2           5.1640     6.1480   -10.4610 ha         1 TNS       0.152500
     45 H4           6.0950     7.5610    -6.5230 ha         1 TNS       0.152500
     46 H5           7.2530     9.5280    -7.5000 ha         1 TNS       0.163500
     47 H1           6.3220     8.1130   -11.4430 ha         1 TNS       0.163500
@<TRIPOS>BOND
     1     1     2 1
     2     2     3 1
     3     2     4 1
     4     4     5 1
     5     4    27 1
     6     4    28 1
     7     5     6 1
     8     5    29 1
     9     5    30 1
    10     6     7 1
    11     6    31 1
    12     6    32 1
    13     7     8 1
    14     7    33 1
    15     7    34 1
    16     8     9 1
    17     8    10 1
    18     9    35 1
    19     9    36 1
    20     9    37 1
    21    10    11 ar
    22    10    13 ar
    23    11    12 ar
    24    11    38 1
    25    12    15 ar
    26    12    39 1
    27    13    14 ar
    28    13    40 1
    29    14    15 ar
    30    14    41 1
    31    15    16 1
    32    16    17 2
    33    16    42 1
    34    17    18 1
    35    17    43 1
    36    18    19 ar
    37    18    20 ar
    38    19    23 ar
    39    19    44 1
    40    20    21 ar
    41    20    45 1
    42    21    22 ar
    43    21    46 1
    44    22    23 ar
    45    22    24 1
    46    23    47 1
    47    24    25 1
    48    24    26 1
@<TRIPOS>SUBSTRUCTURE
     1 TNS         1 TEMP              0 ****  ****    0 ROOT
