@<TRIPOS>MOLECULE
molecule
   45    46     1     0     0
SMALL
bcc


@<TRIPOS>ATOM
      1 C1           0.0000     0.0000     0.0000 ca         1 TNT       0.180100
      2 C2           1.3880     0.0000     0.0000 ca         1 TNT      -0.180500
      3 C3           2.0790     0.0000     1.1920 ca         1 TNT      -0.043750
      4 C4           1.3810     0.0000     2.4000 ca         1 TNT      -0.232400
      5 C5          -0.0140    -0.0040     2.3970 ca         1 TNT      -0.043750
      6 C6          -0.6990     0.0000     1.2010 ca         1 TNT      -0.180500
      7 C7           2.1190    -0.0000     3.6820 ce         1 TNT       0.542300
      8 N1           3.4230    -0.0000     3.6840 n2         1 TNT      -0.677100
      9 N2           1.4280    -0.0000     4.8750 nz         1 TNT      -0.801600
     10 C1'         -6.4590    -0.0000    -2.6290 ca         1 TNT       0.180100
     11 C2'         -7.4530     0.0000    -3.5990 ca         1 TNT      -0.180500
     12 C3'         -8.7800    -0.0000    -3.2280 ca         1 TNT      -0.043750
     13 C4'         -9.1240    -0.0000    -1.8760 ca         1 TNT      -0.232400
     14 C5'         -8.1220    -0.0000    -0.9040 ca         1 TNT      -0.043750
     15 C6'         -6.7980    -0.0050    -1.2820 ca         1 TNT      -0.180500
     16 C7'        -10.5480    -0.0000    -1.4740 ce         1 TNT       0.542300
     17 N1'        -11.4820     0.0010    -2.3830 n2         1 TNT      -0.677100
     18 N2'        -10.8860    -0.0000    -0.1370 nz         1 TNT      -0.801600
     19 CA          -2.0690    -0.0000    -0.8530 c3         1 TNT       0.112400
     20 O1          -0.6780     0.0000    -1.1770 os         1 TNT      -0.260900
     21 CB          -2.8940     0.0000    -2.1420 c3         1 TNT      -0.092400
     22 CA'         -4.3830    -0.0000    -1.7950 c3         1 TNT       0.112400
     23 O1'         -5.1520     0.0000    -2.9980 os         1 TNT      -0.260900
     24 H2           1.9290     0.0000    -0.9390 ha         1 TNT       0.169750
     25 H3           3.1630     0.0020     1.1920 ha         1 TNT       0.143000
     26 H5          -0.5590    -0.0040     3.3330 ha         1 TNT       0.143000
     27 H6          -1.7820    -0.0020     1.1970 ha         1 TNT       0.169750
     28 HN1          3.9220    -0.0000     4.5520 hn         1 TNT       0.437400
     29 HN2          0.8510     0.8160     4.9270 hn         1 TNT       0.464467
     30 HN3          0.8540    -0.8180     4.9280 hn         1 TNT       0.464467
     31 H2'         -7.1850     0.0020    -4.6480 ha         1 TNT       0.169750
     32 H3'         -9.5560    -0.0000    -3.9840 ha         1 TNT       0.143000
     33 H5'         -8.3860    -0.0020     0.1470 ha         1 TNT       0.143000
     34 H6'         -6.0200    -0.0050    -0.5290 ha         1 TNT       0.169750
     35 HN'1       -12.4450     0.0010    -2.1110 hn         1 TNT       0.437400
     36 HN'2       -11.8830     0.0000    -0.0450 hn         1 TNT       0.464467
     37 HN'3       -10.5110    -0.8170     0.3020 hn         1 TNT       0.464467
     38 HA1         -2.3050    -0.8850    -0.2730 h1         1 TNT       0.043700
     39 HA2         -2.3050     0.8850    -0.2730 h1         1 TNT       0.043700
     40 HB1         -2.6580    -0.8850    -2.7220 hc         1 TNT       0.086700
     41 HB2         -2.6580     0.8850    -2.7220 hc         1 TNT       0.086700
     42 HA'1        -4.6180    -0.8850    -1.2150 h1         1 TNT       0.043700
     43 HA'2        -4.6180     0.8850    -1.2150 h1         1 TNT       0.043700
     44 H23          2.0770    -0.0080     5.6370 hn         1 TNT       0.464467
     45 H2'3       -10.5100     0.8170     0.3030 hn         1 TNT       0.464467
@<TRIPOS>BOND
     1     1     2 ar
     2     1     6 ar
     3     1    20 1
     4     2     3 ar
     5     2    24 1
     6     3     4 ar
     7     3    25 1
     8     4     5 ar
     9     4     7 1
    10     5     6 ar
    11     5    26 1
    12     6    27 1
    13     7     8 2
    14     7     9 1
    15     8    28 1
    16     9    29 1
    17     9    30 1
    18    10    11 ar
    19    10    15 ar
    20    10    23 1
    21    11    12 ar
    22    11    31 1
    23    12    13 ar
    24    12    32 1
    25    13    14 ar
    26    13    16 1
    27    14    15 ar
    28    14    33 1
    29    15    34 1
    30    16    17 2
    31    16    18 1
    32    17    35 1
    33    18    36 1
    34    18    37 1
    35    19    20 1
    36    19    21 1
    37    19    38 1
    38    19    39 1
    39    21    22 1
    40    21    40 1
    41    21    41 1
    42    22    23 1
    43    22    42 1
    44    22    43 1
    45    44     9 1
    46    45    18 1
@<TRIPOS>SUBSTRUCTURE
     1 TNT         1 TEMP              0 ****  ****    0 ROOT
