@<TRIPOS>MOLECULE
TNT
   45    46     1     0     0
SMALL
bcc


@<TRIPOS>ATOM
      1 C1           0.0000     0.0000     0.0000 ca         1 TNT       0.195100
      2 C2           1.3880     0.0000     0.0000 ca         1 TNT      -0.155000
      3 C3           2.0790     0.0000     1.1920 ca         1 TNT      -0.023500
      4 C4           1.3810     0.0000     2.4000 ca         1 TNT      -0.271400
      5 C5          -0.0140    -0.0040     2.3970 ca         1 TNT      -0.023500
      6 C6          -0.6990     0.0000     1.2010 ca         1 TNT      -0.155000
      7 C7           2.1190    -0.0000     3.6820 ce         1 TNT       0.212300
      8 N1           3.4230    -0.0000     3.6840 n2         1 TNT      -0.481100
      9 N2           1.4280    -0.0000     4.8750 nz         1 TNT       0.190900
     10 C1'         -6.4590    -0.0000    -2.6290 ca         1 TNT       0.195100
     11 C2'         -7.4530     0.0000    -3.5990 ca         1 TNT      -0.155000
     12 C3'         -8.7800    -0.0000    -3.2280 ca         1 TNT      -0.023500
     13 C4'         -9.1240    -0.0000    -1.8760 ca         1 TNT      -0.271400
     14 C5'         -8.1220    -0.0000    -0.9040 ca         1 TNT      -0.023500
     15 C6'         -6.7980    -0.0050    -1.2820 ca         1 TNT      -0.155000
     16 C7'        -10.5480    -0.0000    -1.4740 ce         1 TNT       0.212300
     17 N1'        -11.4820     0.0010    -2.3830 n2         1 TNT      -0.481100
     18 N2'        -10.8860    -0.0000    -0.1370 nz         1 TNT       0.190900
     19 CA          -2.0690    -0.0000    -0.8530 c3         1 TNT       0.181900
     20 O1          -0.6780     0.0000    -1.1770 os         1 TNT      -0.247900
     21 CB          -2.8940     0.0000    -2.1420 c3         1 TNT      -0.049400
     22 CA'         -4.3830    -0.0000    -1.7950 c3         1 TNT       0.181900
     23 O1'         -5.1520     0.0000    -2.9980 os         1 TNT      -0.247900
     24 H2           1.9290     0.0000    -0.9390 ha         1 TNT       0.144750
     25 H3           3.1630     0.0020     1.1920 ha         1 TNT       0.098500
     26 H5          -0.5590    -0.0040     3.3330 ha         1 TNT       0.098500
     27 H6          -1.7820    -0.0020     1.1970 ha         1 TNT       0.144750
     28 HN1          3.9260    -0.0000     2.8190 hn         1 TNT       0.382400
     29 HN2          0.8520     0.8170     4.9270 hn         1 TNT       0.221133
     30 HN3          2.0770     0.0010     5.6370 hn         1 TNT       0.221133
     31 H2'         -7.1850     0.0020    -4.6480 ha         1 TNT       0.144750
     32 H3'         -9.5560    -0.0000    -3.9840 ha         1 TNT       0.098500
     33 H5'         -8.3860    -0.0020     0.1470 ha         1 TNT       0.098500
     34 H6'         -6.0200    -0.0050    -0.5290 ha         1 TNT       0.144750
     35 HN'1       -11.2380     0.0010    -3.3530 hn         1 TNT       0.382400
     36 HN'2       -11.8830     0.0000    -0.0450 hn         1 TNT       0.221133
     37 HN'3       -10.5110     0.8170     0.3030 hn         1 TNT       0.221133
     38 HA1         -2.3050    -0.8850    -0.2730 h1         1 TNT       0.010700
     39 HA2         -2.3050     0.8850    -0.2730 h1         1 TNT       0.010700
     40 HB1         -2.6580     0.8850    -2.7220 hc         1 TNT       0.049700
     41 HB2         -2.6580    -0.8850    -2.7220 hc         1 TNT       0.049700
     42 HA'1        -4.6180     0.8850    -1.2150 h1         1 TNT       0.010700
     43 HA'2        -4.6180    -0.8850    -1.2150 h1         1 TNT       0.010700
     44 H23          0.8610    -0.8230     4.9330 hn         1 TNT       0.221133
     45 H2'3       -10.5180    -0.8220     0.3010 hn         1 TNT       0.221133
@<TRIPOS>BOND
     1     1     2 ar  
     2     1     6 ar  
     3     1    20 1   
     4     2     3 ar  
     5     2    24 1   
     6     3     4 ar  
     7     3    25 1   
     8     4     5 ar  
     9     4     7 1   
    10     5     6 ar  
    11     5    26 1   
    12     6    27 1   
    13     7     8 2   
    14     7     9 1   
    15     8    28 1   
    16     9    29 1   
    17     9    30 1   
    18     9    44 1   
    19    10    11 ar  
    20    10    15 ar  
    21    10    23 1   
    22    11    12 ar  
    23    11    31 1   
    24    12    13 ar  
    25    12    32 1   
    26    13    14 ar  
    27    13    16 1   
    28    14    15 ar  
    29    14    33 1   
    30    15    34 1   
    31    16    17 2   
    32    16    18 1   
    33    17    35 1   
    34    18    36 1   
    35    18    37 1   
    36    18    45 1   
    37    19    20 1   
    38    19    21 1   
    39    19    38 1   
    40    19    39 1   
    41    21    22 1   
    42    21    40 1   
    43    21    41 1   
    44    22    23 1   
    45    22    42 1   
    46    22    43 1   
@<TRIPOS>SUBSTRUCTURE
     1 TNT         1 TEMP              0 ****  ****    0 ROOT
