@<TRIPOS>MOLECULE
TNV
   39    40     1     0     0
SMALL
bcc


@<TRIPOS>ATOM
      1 PA          0.0000    0.0000    0.0000 p5        1 TNV      0.598600
      2 O1A         1.4790    0.0000    0.0000 o         1 TNV     -0.607500
      3 O2A        -0.5360    0.0000    1.5170 o         1 TNV     -0.607500
      4 O3A        -0.5360    1.3140   -0.7580 os        1 TNV     -0.500800
      5 PB          0.0360    2.5840    0.0500 p5        1 TNV      0.877800
      6 O1B         1.5140    2.5430    0.0490 o         1 TNV     -0.571500
      7 O2B        -0.5010    2.5400    1.5670 o         1 TNV     -0.571500
      8 O3B        -0.4650    3.9410   -0.6570 os        1 TNV     -0.492800
      9 PG          0.1400    5.1620    0.1990 p5        1 TNV      0.740900
     10 O1G         1.6170    5.0830    0.1940 o         1 TNV     -0.762500
     11 O2G        -0.3230    6.5580   -0.4570 o         1 TNV     -0.762500
     12 O3G        -0.3980    5.0750    1.7120 o         1 TNV     -0.762500
     13 C9'        -0.6080   -1.4880   -0.8600 c3        1 TNV      0.122200
     14 O9'        -0.2440   -2.6510   -0.1140 os        1 TNV     -0.388600
     15 C8'         1.2800   -3.7540   -1.6310 c3        1 TNV     -0.026100
     16 C7'         1.1400   -2.8920   -0.3740 c3        1 TNV      0.072100
     17 C6'         1.7630   -3.6210    0.8170 c3        1 TNV     -0.015700
     18 N9          1.6290   -2.7960    2.0190 na        1 TNV      0.224000
     19 C4          2.5300   -1.8660    2.4710 ca        1 TNV      0.307800
     20 N3          3.7030   -1.4110    2.0420 nb        1 TNV     -0.693000
     21 C2          4.3460   -0.4780    2.7120 ca        1 TNV      0.610900
     22 N1          3.8700    0.0520    3.8230 nb        1 TNV     -0.727000
     23 C6          2.7040   -0.3360    4.3260 ca        1 TNV      0.524200
     24 N6          2.2130    0.2250    5.4910 nv        1 TNV     -0.533500
     25 C5          1.9790   -1.3290    3.6460 ca        1 TNV     -0.187200
     26 N7          0.7940   -1.9540    3.8520 nc        1 TNV     -0.502100
     27 C8          0.5880   -2.8150    2.8980 cd        1 TNV      0.181700
     28 H9'1       -0.1670   -1.5390   -1.8480 h1        1 TNV     -0.024300
     29 H9'2       -1.6870   -1.4380   -0.9490 h1        1 TNV     -0.024300
     30 H8'1        1.9570   -4.5760   -1.4310 hc        1 TNV     -0.021300
     31 H8'2        0.3100   -4.1460   -1.9100 hc        1 TNV     -0.021300
     32 H8'3        1.6730   -3.1520   -2.4400 hc        1 TNV     -0.021300
     33 H7'         1.6480   -1.9470   -0.5260 h1        1 TNV      0.150700
     34 H6'1        2.8120   -3.8040    0.6200 h1        1 TNV     -0.010800
     35 H6'2        1.2550   -4.5660    0.9690 h1        1 TNV     -0.010800
     36 H2          5.3020   -0.1320    2.3370 h5        1 TNV     -0.046900
     37 HN61        2.5860    1.0920    5.8250 hn        1 TNV      0.243800
     38 HN62        1.4870   -0.2370    6.0020 hn        1 TNV      0.243800
     39 H8         -0.2820   -3.4560    2.8180 h5        1 TNV     -0.007200
@<TRIPOS>BOND
     1    1    2 1   
     2    1    3 1   
     3    1    4 1   
     4    1   13 1   
     5    4    5 1   
     6    5    6 1   
     7    5    7 1   
     8    5    8 1   
     9    8    9 1   
    10    9   10 1   
    11    9   11 1   
    12    9   12 1   
    13   13   14 1   
    14   13   28 1   
    15   13   29 1   
    16   14   16 1   
    17   15   16 1   
    18   15   30 1   
    19   15   31 1   
    20   15   32 1   
    21   16   17 1   
    22   16   33 1   
    23   17   18 1   
    24   17   34 1   
    25   17   35 1   
    26   18   19 1   
    27   18   27 1   
    28   19   20 ar  
    29   19   25 ar  
    30   20   21 ar  
    31   21   22 ar  
    32   21   36 1   
    33   22   23 ar  
    34   23   24 1   
    35   23   25 ar  
    36   24   37 1   
    37   24   38 1   
    38   25   26 1   
    39   26   27 2   
    40   27   39 1   
@<TRIPOS>SUBSTRUCTURE
     1 TNV         1 TEMP              0 ****  ****    0 ROOT
