@<TRIPOS>MOLECULE
TNX
   27    27     1     0     0
SMALL
bcc


@<TRIPOS>ATOM
      1 C1           0.0000     0.0000     0.0000 c2         1 TNX       0.139100
      2 S7           2.9580    -2.3610    -0.4870 s          1 TNX      -0.654400
      3 C2           1.3130     0.0000     0.0000 c2         1 TNX      -0.319600
      4 C3           2.1200     0.0000     1.2700 c3         1 TNX       0.205300
      5 C4           1.2300     0.4370     2.4390 c3         1 TNX       0.130100
      6 C5          -0.0880    -0.3440     2.3560 c3         1 TNX       0.158100
      7 C6          -0.9810     0.0240     3.5420 c3         1 TNX       0.222400
      8 C7           2.8210    -1.0140    -1.5350 cs         1 TNX       0.258400
      9 C8           3.6320    -0.9600    -2.8030 c3         1 TNX      -0.026100
     10 N2           1.9870    -0.0020    -1.2250 ns         1 TNX       0.200900
     11 O3           3.2140     0.9090     1.1390 oh         1 TNX      -0.595800
     12 O4           1.8840     0.1470     3.6760 oh         1 TNX      -0.576800
     13 O5          -0.7420     0.0090     1.1340 os         1 TNX      -0.277900
     14 O6          -2.1560    -0.7890     3.5250 oh         1 TNX      -0.582800
     15 H1          -0.5150    -0.0070    -0.9530 h4         1 TNX       0.126000
     16 H3           2.4950    -0.9990     1.4570 h1         1 TNX       0.088700
     17 H4           1.0290     1.4990     2.3660 h1         1 TNX       0.022700
     18 H5           0.1180    -1.4070     2.3630 h1         1 TNX       0.053700
     19 H61C        -1.2630     1.0670     3.4720 h1         1 TNX       0.001200
     20 H62C        -0.4410    -0.1430     4.4660 h1         1 TNX       0.001200
     21 H83C         2.9660    -0.9370    -3.6570 hc         1 TNX       0.029700
     22 H82C         4.2660    -1.8370    -2.8640 hc         1 TNX       0.029700
     23 H81C         4.2480    -0.0690    -2.8010 hc         1 TNX       0.029700
     24 H2           1.8280     0.7350    -1.8840 hn         1 TNX       0.145500
     25 HC           3.9620     0.5700     1.6010 ho         1 TNX       0.405000
     26 HD           2.2110     0.9470     4.0540 ho         1 TNX       0.396000
     27 H6          -2.5830    -0.7440     4.3640 ho         1 TNX       0.391000
@<TRIPOS>BOND
     1     1     3 2   
     2     1    13 1   
     3     1    15 1   
     4     2     8 2   
     5     3     4 1   
     6     3    10 1   
     7     4     5 1   
     8     4    11 1   
     9     4    16 1   
    10     5     6 1   
    11     5    12 1   
    12     5    17 1   
    13     6     7 1   
    14     6    13 1   
    15     6    18 1   
    16     7    14 1   
    17     7    19 1   
    18     7    20 1   
    19     8     9 1   
    20     8    10 1   
    21     9    21 1   
    22     9    22 1   
    23     9    23 1   
    24    10    24 1   
    25    11    25 1   
    26    12    26 1   
    27    14    27 1   
@<TRIPOS>SUBSTRUCTURE
     1 TNX         1 TEMP              0 ****  ****    0 ROOT
