@<TRIPOS>MOLECULE
molecule
   34    36     1     0     0
SMALL
bcc


@<TRIPOS>ATOM
      1 C            0.0000     0.0000     0.0000 c3         1 TO1       0.251800
      2 N           -0.5110    -0.4840    -1.2850 na         1 TO1      -0.154100
      3 O            1.4440     0.0000     0.0000 os         1 TO1      -0.402600
      4 C2          -1.7500    -0.1960    -1.7920 ca         1 TO1       0.527800
      5 N2          -2.7840     0.5250    -1.3590 nb         1 TO1      -0.788000
      6 O2          -1.5510    -0.4920     1.8240 oh         1 TO1      -0.558800
      7 C3          -3.8800     0.6280    -2.0780 ca         1 TO1       0.742900
      8 N3          -4.0220     0.0370    -3.2500 nb         1 TO1      -0.828000
      9 O3           0.4740    -0.4910     3.3700 oh         1 TO1      -0.567800
     10 C4          -3.0440    -0.7030    -3.7660 ca         1 TO1       0.775200
     11 N4           0.0920    -2.9820    -5.2590 n1         1 TO1      -0.383800
     12 C5          -1.8590    -0.8420    -3.0350 ca         1 TO1      -0.377400
     13 N5          -3.1960    -1.3230    -4.9940 nv         1 TO1      -0.996500
     14 C6          -0.5830    -1.5460    -3.2400 cc         1 TO1      -0.049900
     15 C7           0.1830    -1.2800    -2.1450 cd         1 TO1      -0.036100
     16 C8          -0.2180    -2.3480    -4.3690 cg         1 TO1       0.236500
     17 C9          -0.3950    -0.9710     1.1350 c3         1 TO1       0.098100
     18 C10          0.8330    -0.9710     2.0730 c3         1 TO1       0.087100
     19 C11          1.8250     0.0000     1.3930 c3         1 TO1       0.122100
     20 C12          3.2600    -0.5050     1.5530 c3         1 TO1       0.147400
     21 H           -0.3750     0.9940     0.2110 h2         1 TO1       0.117700
     22 HO2         -2.0740    -1.2230     2.1080 ho         1 TO1       0.410000
     23 H3          -4.7000     1.2220    -1.6930 h5         1 TO1       0.063100
     24 HO3          0.8160    -1.0750     4.0270 ho         1 TO1       0.403000
     25 HO4          5.0060     0.0210     0.8420 ho         1 TO1       0.407000
     26 HN5         -2.3890    -1.5990    -5.5190 hn         1 TO1       0.448300
     27 HN5A        -4.1110    -1.4620    -5.3740 hn         1 TO1       0.448300
     28 H7           1.1900    -1.6440    -1.9840 h4         1 TO1       0.192000
     29 H9          -0.5670    -1.9650     0.7390 h1         1 TO1       0.056700
     30 H10          1.2610    -1.9640     2.1340 h1         1 TO1       0.046700
     31 H11          1.7210     0.9940     1.8100 h1         1 TO1       0.093700
     32 H12          3.4920    -0.6070     2.6060 h1         1 TO1       0.031200
     33 H12A         3.3600    -1.4680     1.0660 h1         1 TO1       0.031200
     34 O4           4.1630     0.4270     0.9550 oh         1 TO1      -0.594800
@<TRIPOS>BOND
     1     1     2 1
     2     1     3 1
     3     1    17 1
     4     2     4 1
     5     2    15 1
     6     3    19 1
     7     4     5 ar
     8     4    12 ar
     9     5     7 ar
    10     6    17 1
    11     7     8 ar
    12     8    10 ar
    13     9    18 1
    14    10    12 ar
    15    10    13 1
    16    11    16 3
    17    34    20 1
    18    12    14 1
    19    14    15 2
    20    14    16 1
    21    17    18 1
    22    18    19 1
    23    19    20 1
    24     1    21 1
    25     6    22 1
    26     7    23 1
    27     9    24 1
    28    34    25 1
    29    13    26 1
    30    13    27 1
    31    15    28 1
    32    17    29 1
    33    18    30 1
    34    19    31 1
    35    20    32 1
    36    20    33 1
@<TRIPOS>SUBSTRUCTURE
     1 TO1         1 TEMP              0 ****  ****    0 ROOT
