@<TRIPOS>MOLECULE
TO2
   46    45     1     0     0
SMALL
bcc


@<TRIPOS>ATOM
      1 CAA         0.0510    2.4090   -2.2200 c3        1 TO2     -0.216000
      2 CAB         2.8000    5.9910   -1.4910 c3        1 TO2     -0.074000
      3 CAC         1.4770    1.9880   -1.9520 c3        1 TO2     -0.033000
      4 OAE         7.6890    0.8400   -1.5000 oh        1 TO2     -0.326000
      5 CAF         1.5740    2.3040    2.6400 c1        1 TO2     -0.239000
      6 CAG         1.8730    3.2300    1.9020 c1        1 TO2     -0.062000
      7 CAH         1.3490    1.1800    3.3320 c1        1 TO2     -0.062000
      8 CAI         4.7450   -0.8660    2.5110 c2        1 TO2     -0.239000
      9 CAJ         6.2310    3.0180   -0.6750 ca        1 TO2     -0.124000
     10 CAK         5.5040    4.1940   -0.5040 ca        1 TO2     -0.117000
     11 CAL         4.2020    1.8330   -1.2820 ca        1 TO2     -0.178000
     12 CAM         7.3460   -1.3580    0.1610 c3        1 TO2     -0.042000
     13 OAN         2.2920   -0.7530   -0.1210 o         1 TO2     -0.290000
     14 OAQ         4.9840   -0.9240    0.1080 os        1 TO2     -0.220000
     15 CAR         5.5830    1.8390   -1.0500 ca        1 TO2     -0.059000
     16 CAS         2.7820   -0.6820    1.0060 c2        1 TO2      0.213000
     17 CAT         4.1220    4.1970   -0.7090 ca        1 TO2      0.011000
     18 CAU         3.4670    3.0110   -1.1220 ca        1 TO2      0.053000
     19 CAV         4.2390   -0.8110    1.2710 c2        1 TO2     -0.044000
     20 CAW         6.3330    0.5480   -1.1940 c3        1 TO2      0.075000
     21 CAX         6.2650   -0.2730    0.1190 c3        1 TO2     -0.047000
     22 HAA        -0.4700    2.6550   -1.2640 hc        1 TO2      0.086333
     23 HAAA        0.0250    3.3110   -2.8770 hc        1 TO2      0.086333
     24 HAAB       -0.4860    1.5710   -2.7240 hc        1 TO2      0.086333
     25 HAB         2.2920    6.8760   -1.0330 h1        1 TO2      0.083333
     26 HABA        2.1680    3.9900    1.2100 ha        1 TO2      0.185000
     27 HABB        3.5770    6.3150   -2.2240 h1        1 TO2      0.083333
     28 HAC         2.0580    5.3140   -1.9800 h1        1 TO2      0.083333
     29 HACA        2.0170    1.7520   -2.9060 h1        1 TO2      0.094500
     30 HACB        1.5200    1.1020   -1.2630 h1        1 TO2      0.094500
     31 HOAD        6.5590   -2.4500   -1.2240 ho        1 TO2      0.216000
     32 HOAE        8.0710    0.0210   -1.8480 ho        1 TO2      0.223000
     33 HAF         0.7030    1.1090    4.2080 ha        1 TO2      0.185000
     34 HAG         5.8190   -0.9620    2.7120 ha        1 TO2      0.133000
     35 HAH         2.1690   -0.4830    1.9210 h4        1 TO2      0.154000
     36 HAI         4.0950   -0.8050    3.3930 ha        1 TO2      0.133000
     37 HAJ         7.3220    3.0130   -0.5240 ha        1 TO2      0.154000
     38 HAK         6.0030    5.1240   -0.1930 ha        1 TO2      0.148000
     39 HAL         3.7030    0.8870   -1.5500 ha        1 TO2      0.165000
     40 HAM         8.3570   -0.8880    0.2950 h1        1 TO2      0.099000
     41 HAMA        6.3780    0.4080    1.0040 h1        1 TO2      0.116000
     42 HAW         5.8760   -0.0720   -2.0180 h1        1 TO2      0.103000
     43 HAX         7.1350   -2.0670    1.0040 h1        1 TO2      0.099000
     44 OAD         7.4290   -2.0600   -1.0620 oh        1 TO2     -0.335000
     45 OAO         3.4100    5.3400   -0.3770 os        1 TO2     -0.230000
     46 OAP         2.1050    3.1130   -1.3120 os        1 TO2     -0.225000
@<TRIPOS>BOND
     1    1    3 1   
     2    1   22 1   
     3    1   23 1   
     4    1   24 1   
     5    2   25 1   
     6    2   27 1   
     7    2   28 1   
     8    2   45 1   
     9    3   29 1   
    10    3   30 1   
    11    3   46 1   
    12    4   20 1   
    13    4   32 1   
    14    5    6 1   
    15    5    7 1   
    16    6   26 1   
    17    7   33 1   
    18    8   19 1   
    19    8   34 1   
    20    8   36 1   
    21    9   10 1   
    22    9   15 1   
    23    9   37 1   
    24   10   17 1   
    25   10   38 1   
    26   11   15 1   
    27   11   18 1   
    28   11   39 1   
    29   12   21 1   
    30   12   40 1   
    31   12   43 1   
    32   12   44 1   
    33   13   16 1   
    34   14   19 1   
    35   14   21 1   
    36   15   20 1   
    37   16   19 1   
    38   16   35 1   
    39   17   18 1   
    40   17   45 1   
    41   18   46 1   
    42   20   21 1   
    43   20   42 1   
    44   21   41 1   
    45   31   44 1   
@<TRIPOS>SUBSTRUCTURE
     1 TO2         1 TEMP              0 ****  ****    0 ROOT
