@<TRIPOS>MOLECULE
molecule
   46    47     1     0     0
SMALL
bcc


@<TRIPOS>ATOM
      1 CAA          0.0000     0.0000     0.0000 c3         1 TO2       0.127700
      2 CAB          4.5750     6.9120    -1.2550 c3         1 TO2       0.127700
      3 CAC          2.3820     2.3860    -3.7360 c3         1 TO2       0.124700
      4 OAE          7.6100     0.8370    -0.8300 oh         1 TO2      -0.608800
      5 CAF          1.9220    -0.0000     3.6060 ca         1 TO2      -0.129000
      6 CAG          3.3020     0.0000     3.6800 ca         1 TO2      -0.128000
      7 CAH          1.2930    -0.0000     2.3750 ca         1 TO2      -0.187000
      8 CAI          4.0600     0.0000     2.5240 ca         1 TO2      -0.195000
      9 CAJ          6.1360     3.1900    -0.6210 ca         1 TO2      -0.107000
     10 CAK          5.5910     4.4400    -0.8500 ca         1 TO2      -0.197000
     11 CAL          4.5080     2.2030    -2.0760 ca         1 TO2      -0.159000
     12 CAM          6.2020    -1.2570     0.5550 c3         1 TO2       0.112400
     13 OAN          1.4290     0.0000     0.0000 os         1 TO2      -0.314900
     14 OAQ          4.1800     0.0010     0.1490 os         1 TO2      -0.297900
     15 CAR          5.5960     2.0740    -1.2330 ca         1 TO2      -0.124300
     16 CAS          2.0460    -0.0000     1.2120 ca         1 TO2       0.118100
     17 CAT          4.5020     4.5760    -1.6930 ca         1 TO2       0.120100
     18 CAU          3.9580     3.4530    -2.3100 ca         1 TO2       0.111100
     19 CAV          3.4350     0.0000     1.2880 ca         1 TO2       0.122100
     20 CAW          6.1940     0.7150    -0.9790 c3         1 TO2       0.207400
     21 CAX          5.5950     0.1230     0.2990 c3         1 TO2       0.153100
     22 HAA         -0.3610    -0.0640    -1.0190 h1         1 TO2       0.040033
     23 HAAA        -0.3610    -0.8510     0.5650 h1         1 TO2       0.040033
     24 HAAB        -0.3610     0.9150     0.4540 h1         1 TO2       0.040033
     25 HAB          5.6130     6.9870    -1.5580 h1         1 TO2       0.039033
     26 HABA         4.0530     7.8220    -1.5260 h1         1 TO2       0.039033
     27 HABB         4.5210     6.7710    -0.1820 h1         1 TO2       0.039033
     28 HAC          3.1540     1.9330    -4.3460 h1         1 TO2       0.041367
     29 HACA         1.5320     2.6400    -4.3580 h1         1 TO2       0.041367
     30 HACB         2.0720     1.6870    -2.9690 h1         1 TO2       0.041367
     31 HOAD         6.2980    -2.9610    -0.4040 ho         1 TO2       0.403000
     32 HOAE         8.0260     0.7220    -1.6680 ho         1 TO2       0.415000
     33 HAF          1.3320    -0.0000     4.5150 ha         1 TO2       0.131000
     34 HAG          3.7910     0.0000     4.6470 ha         1 TO2       0.130000
     35 HAH          0.2110    -0.0000     2.3200 ha         1 TO2       0.139000
     36 HAI          5.1420     0.0000     2.5840 ha         1 TO2       0.140000
     37 HAJ          6.9890     3.0840     0.0390 ha         1 TO2       0.142000
     38 HAK          6.0170     5.3120    -0.3690 ha         1 TO2       0.138000
     39 HAL          4.0860     1.3280    -2.5540 ha         1 TO2       0.150000
     40 HAM          7.2610    -1.1540     0.7570 h1         1 TO2       0.036700
     41 HAMA         5.7150    -1.7130     1.4090 h1         1 TO2       0.036700
     42 HAW          5.9750     0.0620    -1.8160 h1         1 TO2       0.068700
     43 HAX          5.8150     0.7750     1.1360 h1         1 TO2       0.067700
     44 OAD          6.0140    -2.0830    -0.5970 oh         1 TO2      -0.604800
     45 OAO          3.9640     5.8050    -1.9190 os         1 TO2      -0.314900
     46 OAP          2.8870     3.5820    -3.1390 os         1 TO2      -0.315900
@<TRIPOS>BOND
     1     1    13 1
     2     1    22 1
     3     1    23 1
     4     1    24 1
     5     2    45 1
     6     2    25 1
     7     2    26 1
     8     2    27 1
     9    46     3 1
    10     3    28 1
    11     3    29 1
    12     3    30 1
    13    12    44 1
    14    44    31 1
    15    20     4 1
    16     4    32 1
    17     5     7 ar
    18     5     6 ar
    19     5    33 1
    20     6     8 ar
    21     6    34 1
    22     7    16 ar
    23     7    35 1
    24     8    19 ar
    25     8    36 1
    26     9    15 ar
    27     9    10 ar
    28     9    37 1
    29    10    17 ar
    30    10    38 1
    31    15    11 ar
    32    11    18 ar
    33    11    39 1
    34    12    21 1
    35    12    40 1
    36    12    41 1
    37    16    13 1
    38    17    45 1
    39    18    46 1
    40    19    14 1
    41    14    21 1
    42    20    15 1
    43    16    19 ar
    44    17    18 ar
    45    21    20 1
    46    20    42 1
    47    21    43 1
@<TRIPOS>SUBSTRUCTURE
     1 TO2         1 TEMP              0 ****  ****    0 ROOT
