@<TRIPOS>MOLECULE
molecule
   26    26     1     0     0
SMALL
bcc


@<TRIPOS>ATOM
      1 C1           0.0000     0.0000     0.0000 c3         1 TOB       0.112500
      2 C2           1.5310     0.0000     0.0000 c3         1 TOB      -0.135400
      3 C3           2.0400     0.0000     1.4420 c3         1 TOB       0.117500
      4 C4           1.5310    -1.2490     2.1630 c3         1 TOB      -0.143400
      5 C5           0.0010    -1.2480     2.1640 c3         1 TOB       0.157100
      6 C6          -0.5100    -1.2490     0.7220 c3         1 TOB       0.118100
      7 N1          -0.4900     0.0000    -1.3850 nz         1 TOB      -0.803600
      8 N3           3.5100    -0.0000     1.4420 nz         1 TOB      -0.807600
      9 O5          -0.4760    -2.4150     2.8380 oh         1 TOB      -0.559800
     10 O6          -1.9390    -1.2490     0.7220 oh         1 TOB      -0.586800
     11 H1          -0.3590     0.8830     0.5140 hx         1 TOB       0.140700
     12 H21          1.8900     0.8860    -0.5090 hc         1 TOB       0.087200
     13 H22          1.8900    -0.8860    -0.5090 hc         1 TOB       0.087200
     14 H3           1.6750     0.8830     1.9520 hx         1 TOB       0.130700
     15 H41          1.8900    -2.1330     1.6500 hc         1 TOB       0.098200
     16 H42          1.8910    -1.2470     3.1850 hc         1 TOB       0.098200
     17 H5          -0.3580    -0.3610     2.6720 h1         1 TOB       0.072700
     18 H6          -0.1450    -2.1320     0.2130 h1         1 TOB       0.072700
     19 HN11        -0.1000     0.7800    -1.8770 hn         1 TOB       0.472467
     20 HN12        -0.2160    -0.8500    -1.8360 hn         1 TOB       0.472467
     21 HN13        -1.4880     0.0720    -1.3850 hn         1 TOB       0.472467
     22 HN31         3.8440    -0.0030     2.3850 hn         1 TOB       0.471467
     23 HN32         3.8430    -0.8160     0.9670 hn         1 TOB       0.471467
     24 HN33         3.8440     0.8180     0.9720 hn         1 TOB       0.471467
     25 HO5         -0.7550    -2.1840     3.7080 ho         1 TOB       0.452000
     26 HO6         -2.2530    -2.1180     0.5370 ho         1 TOB       0.462000
@<TRIPOS>BOND
     1     1     2 1
     2     1     6 1
     3     1     7 1
     4     1    11 1
     5     2     3 1
     6     2    12 1
     7     2    13 1
     8     3     4 1
     9     3     8 1
    10     3    14 1
    11     4     5 1
    12     4    15 1
    13     4    16 1
    14     5     6 1
    15     5     9 1
    16     5    17 1
    17     6    10 1
    18     6    18 1
    19     7    19 1
    20     7    20 1
    21     7    21 1
    22     8    22 1
    23     8    23 1
    24     8    24 1
    25     9    25 1
    26    10    26 1
@<TRIPOS>SUBSTRUCTURE
     1 TOB         1 TEMP              0 ****  ****    0 ROOT
