@<TRIPOS>MOLECULE
TOD
   45    45     1     0     0
SMALL
bcc


@<TRIPOS>ATOM
      1 C2           0.0000     0.0000     0.0000 c3         1 TOD      -0.088700
      2 C3           1.5300     0.0000     0.0000 c3         1 TOD       0.000400
      3 C4          -0.5100     0.0000     1.4420 c3         1 TOD      -0.043400
      4 C5          -0.7260    -1.4420     1.9080 c3         1 TOD      -0.123700
      5 C6           0.6260    -2.1490     2.0190 c3         1 TOD       0.124100
      6 C7           1.4050    -1.5650     3.1700 c          1 TOD       0.532100
      7 C10         -5.1270    -2.0240    -0.0520 ca         1 TOD      -0.025300
      8 C11         -5.4400    -0.6810     0.0390 ca         1 TOD      -0.093500
      9 C12         -6.7480    -0.2900     0.2530 ca         1 TOD      -0.111500
     10 C14         -7.4310    -2.5840     0.2780 ca         1 TOD      -0.111500
     11 C16         -3.3200    -2.1910    -1.7130 c          1 TOD       0.984600
     12 O6          -4.0050    -2.7790    -2.7060 o          1 TOD      -0.884300
     13 O5          -2.3970    -1.4540    -1.9690 o          1 TOD      -0.884300
     14 C9          -3.7000    -2.4520    -0.2790 c3         1 TOD      -0.048000
     15 C15         -6.1220    -2.9760     0.0710 ca         1 TOD      -0.093500
     16 C13         -7.7440    -1.2420     0.3750 ca         1 TOD      -0.135000
     17 N2          -2.8160    -1.6900     0.6070 ns         1 TOD      -0.151900
     18 C8          -1.5920    -2.1670     0.9100 c          1 TOD       0.576100
     19 O4          -1.1870    -3.1790     0.3790 o          1 TOD      -0.630100
     20 C1          -0.5100     1.2490    -0.7220 c3         1 TOD       0.000400
     21 O3           0.4160    -3.5440     2.2450 oh         1 TOD      -0.524800
     22 O1           1.4930    -2.1740     4.2140 o          1 TOD      -0.613100
     23 N1           2.0050    -0.3650     3.0370 ns         1 TOD      -0.121400
     24 O2           2.8640     0.1140     4.0570 oh         1 TOD      -0.444100
     25 H1          -0.3610    -0.8850    -0.5110 hc         1 TOD       0.107700
     26 H2           1.8910    -0.9560     0.3590 hc         1 TOD       0.002533
     27 H3           1.8910     0.7890     0.6480 hc         1 TOD       0.002533
     28 H4           1.8910     0.1670    -1.0080 hc         1 TOD       0.002533
     29 H5           0.2180     0.4810     2.0830 hc         1 TOD       0.018700
     30 H6          -1.4480     0.5400     1.4940 hc         1 TOD       0.018700
     31 H7          -1.2140    -1.4400     2.8750 hc         1 TOD       0.044700
     32 H8           1.1820    -2.0120     1.0990 h1         1 TOD       0.044700
     33 H9          -4.6680     0.0650    -0.1000 ha         1 TOD       0.110500
     34 H10         -6.9970     0.7640     0.3010 ha         1 TOD       0.087500
     35 H11         -8.2280    -3.3130     0.3660 ha         1 TOD       0.087500
     36 H13         -3.6010    -3.5100    -0.0650 h1         1 TOD       0.056700
     37 H14         -5.8750    -4.0290     0.0040 ha         1 TOD       0.110500
     38 H15         -8.7710    -0.9380     0.5340 ha         1 TOD       0.086000
     39 H16         -3.1430    -0.8460     1.0350 hn         1 TOD       0.158500
     40 H17         -1.5740     1.3550    -0.5520 hc         1 TOD       0.002533
     41 H18          0.0060     2.1220    -0.3420 hc         1 TOD       0.002533
     42 H19         -0.3220     1.1530    -1.7850 hc         1 TOD       0.002533
     43 H20          1.2390    -3.9990     2.1840 ho         1 TOD       0.381000
     44 H21          1.8820     0.1660     2.1970 hn         1 TOD       0.206500
     45 H22          3.6540     0.4510     3.6690 ho         1 TOD       0.378000
@<TRIPOS>BOND
     1     1     2 1   
     2     1     3 1   
     3     1    20 1   
     4     1    25 1   
     5     2    26 1   
     6     2    27 1   
     7     2    28 1   
     8     3     4 1   
     9     3    29 1   
    10     3    30 1   
    11     4     5 1   
    12     4    18 1   
    13     4    31 1   
    14     5     6 1   
    15     5    21 1   
    16     5    32 1   
    17     6    22 2   
    18     6    23 1   
    19     7     8 ar  
    20     7    14 1   
    21     7    15 ar  
    22     8     9 ar  
    23     8    33 1   
    24     9    16 ar  
    25     9    34 1   
    26    10    15 ar  
    27    10    16 ar  
    28    10    35 1   
    29    11    12 1   
    30    11    13 1   
    31    11    14 1   
    32    14    17 1   
    33    14    36 1   
    34    15    37 1   
    35    16    38 1   
    36    17    18 1   
    37    17    39 1   
    38    18    19 2   
    39    20    40 1   
    40    20    41 1   
    41    20    42 1   
    42    21    43 1   
    43    23    24 1   
    44    23    44 1   
    45    24    45 1   
@<TRIPOS>SUBSTRUCTURE
     1 TOD         1 TEMP              0 ****  ****    0 ROOT
