@<TRIPOS>MOLECULE
TOE
   27    26     1     0     0
SMALL
bcc


@<TRIPOS>ATOM
      1 O2'        -0.5610    0.9150    0.8310 oh        1 TOE     -0.600800
      2 CA'         0.5890    0.4620    0.1470 c3        1 TOE      0.131400
      3 CB'         1.7180    0.1150    1.1120 c3        1 TOE      0.087400
      4 OC'         1.2680   -1.0120    1.8600 os        1 TOE     -0.438600
      5 CD'         2.2120   -1.4210    2.8480 c3        1 TOE      0.128400
      6 CE'         1.6940   -2.7320    3.4290 c3        1 TOE      0.127400
      7 OF'         2.5250   -3.7640    2.9030 os        1 TOE     -0.428600
      8 CG'         2.0550   -5.0650    3.2500 c3        1 TOE      0.127400
      9 CH'         3.1280   -6.0480    2.7930 c3        1 TOE      0.123400
     10 OI'         3.7430   -6.5560    3.9770 os        1 TOE     -0.424600
     11 CK'         4.8590   -7.3810    3.6990 c3        1 TOE      0.117700
     12 H1         -0.8100    0.2190    1.4530 ho        1 TOE      0.412000
     13 H2          0.8970    1.3190   -0.5070 h1        1 TOE      0.053200
     14 H3          0.3350   -0.4320   -0.4830 h1        1 TOE      0.053200
     15 H4          1.9240    0.9710    1.8070 h1        1 TOE      0.039200
     16 H5          2.6510   -0.1480    0.5490 h1        1 TOE      0.039200
     17 H6          2.2710   -0.6340    3.6460 h1        1 TOE      0.045200
     18 H7          3.2240   -1.5630    2.3830 h1        1 TOE      0.045200
     19 H8          1.7790   -2.7240    4.5480 h1        1 TOE      0.043700
     20 H9          0.6250   -2.9050    3.1330 h1        1 TOE      0.043700
     21 H10         1.0890   -5.2610    2.7140 h1        1 TOE      0.044200
     22 H11         1.8940   -5.1380    4.3580 h1        1 TOE      0.044200
     23 H12         2.6660   -6.8980    2.2260 h1        1 TOE      0.043200
     24 H13         3.8910   -5.5360    2.1490 h1        1 TOE      0.043200
     25 H14         4.5530   -8.2670    3.0880 h1        1 TOE      0.033033
     26 H15         5.6530   -6.8050    3.1610 h1        1 TOE      0.033033
     27 H16         5.2240   -7.7060    4.7050 h1        1 TOE      0.033033
@<TRIPOS>BOND
     1    1    2 1   
     2    1   12 1   
     3    2    3 1   
     4    2   13 1   
     5    2   14 1   
     6    3    4 1   
     7    3   15 1   
     8    3   16 1   
     9    4    5 1   
    10    5    6 1   
    11    5   17 1   
    12    5   18 1   
    13    6    7 1   
    14    6   19 1   
    15    6   20 1   
    16    7    8 1   
    17    8    9 1   
    18    8   21 1   
    19    8   22 1   
    20    9   10 1   
    21    9   23 1   
    22    9   24 1   
    23   10   11 1   
    24   11   25 1   
    25   11   26 1   
    26   11   27 1   
@<TRIPOS>SUBSTRUCTURE
     1 TOE         1 TEMP              0 ****  ****    0 ROOT
