@<TRIPOS>MOLECULE
molecule
   27    26     1     0     0
SMALL
bcc


@<TRIPOS>ATOM
      1 O2'          0.0000     0.0000     0.0000 oh         1 TOE      -0.600800
      2 CA'          1.4290     0.0000     0.0000 c3         1 TOE       0.143400
      3 CB'          1.9380     0.0000     1.4420 c3         1 TOE       0.142400
      4 OC'          1.5610    -1.2220     2.0810 os         1 TOE      -0.408600
      5 CD'          1.9910    -1.3250     3.4390 c3         1 TOE       0.142400
      6 CE'          1.5340    -2.6650     4.0190 c3         1 TOE       0.142400
      7 OF'          2.1930    -3.7310     3.3330 os         1 TOE      -0.409600
      8 CG'          1.8350    -5.0320     3.7990 c3         1 TOE       0.141400
      9 CH'          2.5970    -6.0900     2.9980 c3         1 TOE       0.140400
     10 OI'          3.9970    -5.9670     3.2570 os         1 TOE      -0.420600
     11 CK'          4.8040    -6.9130     2.5530 c3         1 TOE       0.129700
     12 H1          -0.3140     0.0630    -0.8870 ho         1 TOE       0.399000
     13 H2           1.7900     0.8850    -0.5110 h1         1 TOE       0.029700
     14 H3           1.7900    -0.8850    -0.5110 h1         1 TOE       0.029700
     15 H4           3.0180     0.0900     1.4440 h1         1 TOE       0.030200
     16 H5           1.5050     0.8360     1.9780 h1         1 TOE       0.030200
     17 H6           3.0710    -1.2620     3.4820 h1         1 TOE       0.031700
     18 H7           1.5590    -0.5160     4.0170 h1         1 TOE       0.031700
     19 H8           1.7830    -2.7060     5.0730 h1         1 TOE       0.032200
     20 H9           0.4620    -2.7650     3.8970 h1         1 TOE       0.032200
     21 H10          2.0890    -5.1220     4.8490 h1         1 TOE       0.030700
     22 H11          0.7690    -5.1810     3.6720 h1         1 TOE       0.030700
     23 H12          2.4110    -5.9450     1.9400 h1         1 TOE       0.032700
     24 H13          2.2610    -7.0770     3.2910 h1         1 TOE       0.032700
     25 H14          5.8460    -6.7550     2.8020 h1         1 TOE       0.028367
     26 H15          4.6640    -6.7840     1.4860 h1         1 TOE       0.028367
     27 H16          4.5130    -7.9170     2.8360 h1         1 TOE       0.028367
@<TRIPOS>BOND
     1    11    10 1
     2    10     9 1
     3     9     8 1
     4     8     7 1
     5     6     7 1
     6     6     5 1
     7     2     1 1
     8     2     3 1
     9     4     3 1
    10     4     5 1
    11     1    12 1
    12     2    13 1
    13     2    14 1
    14     3    15 1
    15     3    16 1
    16     5    17 1
    17     5    18 1
    18     6    19 1
    19     6    20 1
    20     8    21 1
    21     8    22 1
    22     9    23 1
    23     9    24 1
    24    11    25 1
    25    11    26 1
    26    11    27 1
@<TRIPOS>SUBSTRUCTURE
     1 TOE         1 TEMP              0 ****  ****    0 ROOT
