@<TRIPOS>MOLECULE
TOF
   21    22     1     0     0
SMALL
bcc


@<TRIPOS>ATOM
      1 C1           0.0000     0.0000     0.0000 c          1 TOF       0.531000
      2 O1          -0.6340    -0.0020     1.0380 o          1 TOF      -0.609500
      3 C2           1.4760     0.0000     0.0000 cc         1 TOF       0.241800
      4 O2          -0.5050     0.0020    -3.4020 o          1 TOF      -0.647500
      5 N3           2.1930     0.0000     1.1050 nd         1 TOF      -0.440000
      6 C4           3.5170    -0.0000     1.0160 cd         1 TOF       0.520900
      7 N5           4.1370     0.0010    -0.1380 nc         1 TOF      -0.552800
      8 N6           3.5050     0.0020    -1.2620 na         1 TOF       0.593400
      9 C7           2.1440     0.0010    -1.2580 cc         1 TOF      -0.186600
     10 N8           1.4250     0.0020    -2.3710 nd         1 TOF      -0.371400
     11 C9           0.0970     0.0010    -2.3420 c          1 TOF       0.740900
     12 N10         -0.6180    -0.0050    -1.2050 n          1 TOF      -0.128400
     13 C11          4.2430     0.0040    -2.5280 c3         1 TOF      -0.010400
     14 C12         -2.0820    -0.0120    -1.2700 c3         1 TOF       0.074300
     15 H4           4.1040    -0.0010     1.9270 h5         1 TOF       0.028100
     16 H11          3.9820     0.8890    -3.0960 h1         1 TOF       0.043700
     17 H11A         3.9840    -0.8800    -3.0980 h1         1 TOF       0.043700
     18 H11B         5.3070     0.0050    -2.3260 h1         1 TOF       0.043700
     19 H12         -2.4400     0.9940    -1.4510 h1         1 TOF       0.028367
     20 H12A        -2.4050    -0.6610    -2.0750 h1         1 TOF       0.028367
     21 H12B        -2.4830    -0.3740    -0.3310 h1         1 TOF       0.028367
@<TRIPOS>BOND
     1     1     2 2   
     2     1     3 1   
     3     1    12 1   
     4     3     5 2   
     5     3     9 1   
     6     4    11 2   
     7     5     6 1   
     8     6     7 2   
     9     6    15 1   
    10     7     8 1   
    11     8     9 1   
    12     8    13 1   
    13     9    10 2   
    14    10    11 1   
    15    11    12 1   
    16    12    14 1   
    17    13    16 1   
    18    13    17 1   
    19    13    18 1   
    20    14    19 1   
    21    14    20 1   
    22    14    21 1   
@<TRIPOS>SUBSTRUCTURE
     1 TOF         1 TEMP              0 ****  ****    0 ROOT
