@<TRIPOS>MOLECULE
TOH
   21    21     1     0     0
SMALL
bcc


@<TRIPOS>ATOM
      1 O8          0.7990   -1.5870   -1.4490 o         1 TOH     -0.588100
      2 C9          1.3340   -0.6660   -0.8180 c         1 TOH      0.454300
      3 C10         1.9910   -0.8190    0.5720 c         1 TOH      0.866600
      4 O11         1.3210   -0.3640    1.5380 o         1 TOH     -0.800800
      5 O10         3.1290   -1.3440    0.6280 o         1 TOH     -0.800800
      6 C8          1.2920    0.7330   -1.2990 ce        1 TOH     -0.203200
      7 C7          1.7490    1.2360   -2.4470 cf        1 TOH     -0.130200
      8 C1          2.3770    0.5380   -3.5620 ca        1 TOH     -0.107800
      9 C6          3.7060    0.8480   -3.8850 ca        1 TOH     -0.086000
     10 C5          4.3300    0.2750   -4.9900 ca        1 TOH     -0.177000
     11 C4          3.6300   -0.6200   -5.8000 ca        1 TOH     -0.112000
     12 C3          2.3160   -0.9560   -5.5000 ca        1 TOH     -0.170000
     13 C2          1.6910   -0.3860   -4.3760 ca        1 TOH      0.160100
     14 O2          0.3810   -0.7410   -4.1730 oh        1 TOH     -0.524100
     15 H81         0.8690    1.4090   -0.5300 ha        1 TOH      0.149000
     16 H71         1.7030    2.3310   -2.6070 ha        1 TOH      0.109000
     17 H6          4.2600    1.5500   -3.2430 ha        1 TOH      0.131000
     18 H5          5.3750    0.5240   -5.2190 ha        1 TOH      0.118000
     19 H4          4.1220   -1.0700   -6.6740 ha        1 TOH      0.116000
     20 H3          1.7530   -1.6680   -6.1180 ha        1 TOH      0.137000
     21 HO2         0.2000   -0.6840   -3.2160 ho        1 TOH      0.460000
@<TRIPOS>BOND
     1    1    2 2
     2    2    3 1
     3    2    6 1
     4    3    4 1
     5    3    5 1
     6    6    7 2
     7    6   15 1
     8    7    8 1
     9    7   16 1
    10    8    9 ar
    11    8   13 ar
    12    9   10 ar
    13    9   17 1
    14   10   11 ar
    15   10   18 1
    16   11   12 ar
    17   11   19 1
    18   12   13 ar
    19   12   20 1
    20   13   14 1
    21   14   21 1
@<TRIPOS>SUBSTRUCTURE
     1 TOH         1 TEMP              0 ****  ****    0 ROOT
