@<TRIPOS>MOLECULE
TOK
   61    66     1     0     0
SMALL
bcc


@<TRIPOS>ATOM
      1 C1          0.0620    0.0860    0.1120 c3        1 TOK     -0.066400
      2 C2          1.5160    0.4480    0.3010 c3        1 TOK     -0.113400
      3 C3          1.8720    0.4710    1.7820 c3        1 TOK      0.145100
      4 O3          3.2640    0.6980    1.9740 oh        1 TOK     -0.601800
      5 C4          1.5660   -0.8760    2.4290 c3        1 TOK     -0.039200
      6 C5          0.1650   -1.3140    2.1640 c2        1 TOK     -0.108400
      7 C6         -0.5940   -1.7640    3.1750 c2        1 TOK     -0.167200
      8 C7         -1.9800   -2.2550    3.0290 c3        1 TOK     -0.042200
      9 C8         -2.3360   -2.5520    1.5800 c3        1 TOK     -0.046700
     10 C9         -1.8480   -1.4080    0.6760 c3        1 TOK     -0.049700
     11 C10        -0.3090   -1.2700    0.7320 c3        1 TOK      0.000200
     12 C11        -2.3570   -1.5170   -0.7580 c3        1 TOK     -0.075400
     13 C12        -3.8410   -1.8320   -0.9020 c3        1 TOK     -0.067400
     14 C13        -4.2100   -3.0300   -0.0500 c3        1 TOK     -0.012800
     15 C14        -3.8340   -2.6600    1.4120 c3        1 TOK     -0.066700
     16 C15        -4.6600   -3.6280    2.2650 c3        1 TOK     -0.038200
     17 C16        -5.8940   -3.8160    1.4270 c2        1 TOK     -0.194200
     18 C17        -5.6860   -3.4200    0.1390 c2        1 TOK     -0.022300
     19 C18        -3.5140   -4.2840   -0.5660 c3        1 TOK     -0.088100
     20 C19         0.3800   -2.3870   -0.0480 c3        1 TOK     -0.085100
     21 N48        -6.6020   -3.4540   -0.9060 na        1 TOK     -0.107500
     22 C49        -7.6200   -4.4090   -1.1040 ca        1 TOK     -0.069200
     23 C50        -8.3950   -3.9340   -2.2380 ca        1 TOK      0.064400
     24 N51        -7.8590   -2.7070   -2.6890 nc        1 TOK     -0.564100
     25 C52        -6.8230   -2.4500   -1.8850 cd        1 TOK      0.431700
     26 C53        -7.9350   -5.6130   -0.4660 ca        1 TOK     -0.129000
     27 C54        -9.0180   -6.3320   -0.9540 ca        1 TOK     -0.115000
     28 C55        -9.7750   -5.8800   -2.0480 ca        1 TOK     -0.152000
     29 C56        -9.4780   -4.6910   -2.7000 ca        1 TOK     -0.069000
     30 H1         -0.5780    0.8850    0.5730 hc        1 TOK      0.044200
     31 H1A        -0.1670    0.0610   -0.9860 hc        1 TOK      0.044200
     32 H2          2.1740   -0.2920   -0.2260 hc        1 TOK      0.047700
     33 H2A         1.7150    1.4560   -0.1500 hc        1 TOK      0.047700
     34 H3          1.2920    1.2870    2.2990 h1        1 TOK      0.036700
     35 HO3         3.4770    1.5180    1.5130 ho        1 TOK      0.400000
     36 H4          1.7590   -0.7950    3.5310 hc        1 TOK      0.061200
     37 H4A         2.2830   -1.6430    2.0260 hc        1 TOK      0.061200
     38 H6         -0.2040   -1.7770    4.2060 ha        1 TOK      0.124000
     39 H7         -2.6830   -1.4790    3.4430 hc        1 TOK      0.050200
     40 H7A        -2.1230   -3.1860    3.6400 hc        1 TOK      0.050200
     41 H8         -1.8420   -3.5150    1.2800 hc        1 TOK      0.061700
     42 H9         -2.2770   -0.4570    1.1090 hc        1 TOK      0.049700
     43 H11        -2.1620   -0.5400   -1.2770 hc        1 TOK      0.045200
     44 H11A       -1.7760   -2.3030   -1.3090 hc        1 TOK      0.045200
     45 H12        -4.0580   -2.0410   -1.9830 hc        1 TOK      0.044700
     46 H12A       -4.4490   -0.9420   -0.5920 hc        1 TOK      0.044700
     47 H14        -4.2610   -1.6320    1.6140 hc        1 TOK      0.053700
     48 H15        -4.9010   -3.1960    3.2660 hc        1 TOK      0.056700
     49 H16        -6.8160   -4.2120    1.8550 ha        1 TOK      0.150000
     50 H18        -3.9130   -4.5480   -1.5750 hc        1 TOK      0.043700
     51 H18A       -2.4110   -4.1320   -0.6520 hc        1 TOK      0.043700
     52 H18B       -3.6960   -5.1400    0.1290 hc        1 TOK      0.043700
     53 H19        -0.0800   -3.3760    0.1880 hc        1 TOK      0.038367
     54 H19A        0.2970   -2.2070   -1.1480 hc        1 TOK      0.038367
     55 H19B        1.4650   -2.4330    0.2110 hc        1 TOK      0.038367
     56 H52        -6.1820   -1.5610   -1.9430 h5        1 TOK      0.073800
     57 H53        -7.3450   -5.9740    0.3870 ha        1 TOK      0.139000
     58 H54        -9.2920   -7.2830   -0.4710 ha        1 TOK      0.132000
     59 H55       -10.6240   -6.4890   -2.3940 ha        1 TOK      0.133000
     60 H56       -10.0720   -4.3460   -3.5580 ha        1 TOK      0.148000
     61 H15A       -4.1290   -4.6010    2.4210 hc        1 TOK      0.056700
@<TRIPOS>BOND
     1    1    2 1   
     2    1   11 1   
     3    1   30 1   
     4    1   31 1   
     5    2    3 1   
     6    2   32 1   
     7    2   33 1   
     8    3    4 1   
     9    3    5 1   
    10    3   34 1   
    11    4   35 1   
    12    5    6 1   
    13    5   36 1   
    14    5   37 1   
    15    6    7 2   
    16    6   11 1   
    17    7    8 1   
    18    7   38 1   
    19    8    9 1   
    20    8   39 1   
    21    8   40 1   
    22    9   10 1   
    23    9   15 1   
    24    9   41 1   
    25   10   11 1   
    26   10   12 1   
    27   10   42 1   
    28   11   20 1   
    29   12   13 1   
    30   12   43 1   
    31   12   44 1   
    32   13   14 1   
    33   13   45 1   
    34   13   46 1   
    35   14   15 1   
    36   14   18 1   
    37   14   19 1   
    38   15   16 1   
    39   15   47 1   
    40   16   17 1   
    41   16   48 1   
    42   16   61 1   
    43   17   18 2   
    44   17   49 1   
    45   18   21 1   
    46   19   50 1   
    47   19   51 1   
    48   19   52 1   
    49   20   53 1   
    50   20   54 1   
    51   20   55 1   
    52   21   22 1   
    53   21   25 1   
    54   22   23 ar  
    55   22   26 ar  
    56   23   24 1   
    57   23   29 ar  
    58   24   25 2   
    59   25   56 1   
    60   26   27 ar  
    61   26   57 1   
    62   27   28 ar  
    63   27   58 1   
    64   28   29 ar  
    65   28   59 1   
    66   29   60 1   
@<TRIPOS>SUBSTRUCTURE
     1 TOK         1 TEMP              0 ****  ****    0 ROOT
