@<TRIPOS>MOLECULE
molecule
   37    38     1     0     0
SMALL
bcc


@<TRIPOS>ATOM
      1 C1           0.0000     0.0000     0.0000 c3         1 TOL       0.685200
      2 F1           1.3980     0.0000     0.0000 f          1 TOL      -0.225633
      3 F2          -0.4660     0.0000     1.3190 f          1 TOL      -0.225633
      4 F3          -0.4670    -1.1430    -0.6580 f          1 TOL      -0.225633
      5 C2          -0.5040     1.2300    -0.7100 ca         1 TOL      -0.225300
      6 C3          -1.2090     2.1790    -0.0270 ca         1 TOL       0.168100
      7 O1          -1.4530     2.0060     1.3000 os         1 TOL      -0.285900
      8 C4          -2.1940     3.1470     1.7350 c3         1 TOL       0.101700
      9 C5          -1.6790     3.3260    -0.6700 ca         1 TOL      -0.238000
     10 C6          -1.4500     3.5250    -1.9980 ca         1 TOL      -0.026000
     11 C7          -0.7350     2.5690    -2.7300 ca         1 TOL      -0.057000
     12 C8          -0.4670     2.7430    -4.1550 ca         1 TOL      -0.027600
     13 C9           0.2470     1.7580    -4.8240 ca         1 TOL      -0.111000
     14 C10          0.6970     0.6320    -4.1500 ca         1 TOL      -0.129000
     15 C11          0.4590     0.4480    -2.8210 ca         1 TOL      -0.159000
     16 C12         -0.2560     1.4040    -2.0820 ca         1 TOL       0.057000
     17 C13         -0.9460     3.9380    -4.8690 cs         1 TOL       0.457000
     18 S1          -0.0140     5.3740    -4.8560 s          1 TOL      -0.656400
     19 N1          -2.1180     3.9030    -5.5320 n          1 TOL      -0.301800
     20 C14         -2.9710     2.7160    -5.4480 c3         1 TOL       0.072300
     21 C15         -2.5400     5.0530    -6.3370 c3         1 TOL      -0.040000
     22 C16         -2.0280     4.8960    -7.7450 c          1 TOL       0.889600
     23 O2          -1.3770     3.9230    -8.0460 o          1 TOL      -0.829300
     24 O3          -2.2940     5.8350    -8.6660 o          1 TOL      -0.829300
     25 H41         -2.4110     3.0550     2.7920 h1         1 TOL       0.044033
     26 H42         -3.1220     3.2080     1.1800 h1         1 TOL       0.044033
     27 H43         -1.6110     4.0430     1.5620 h1         1 TOL       0.044033
     28 H5          -2.2360     4.0650    -0.1070 ha         1 TOL       0.146000
     29 H6          -1.8200     4.4190    -2.4860 ha         1 TOL       0.161000
     30 H9           0.7480     1.7710    -5.7840 ha         1 TOL       0.164000
     31 H10          1.2120    -0.1160    -4.7400 ha         1 TOL       0.128000
     32 H11          1.0000    -0.4760    -2.6530 ha         1 TOL       0.147000
     33 H141        -2.4350     1.8580    -5.8350 h1         1 TOL       0.046033
     34 H142        -3.8690     2.8750    -6.0330 h1         1 TOL       0.046033
     35 H143        -3.2410     2.5380    -4.4140 h1         1 TOL       0.046033
     36 H151        -3.6220     5.1070    -6.3500 h1         1 TOL       0.073200
     37 H152        -2.1390     5.9630    -5.9060 h1         1 TOL       0.073200
@<TRIPOS>BOND
     1     1     2 1
     2     1     3 1
     3     1     4 1
     4     1     5 1
     5     5     6 ar
     6     5    16 ar
     7     6     7 1
     8     6     9 ar
     9     7     8 1
    10     8    25 1
    11     8    26 1
    12     8    27 1
    13     9    10 ar
    14     9    28 1
    15    10    11 ar
    16    10    29 1
    17    11    12 ar
    18    11    16 ar
    19    12    13 ar
    20    12    17 1
    21    13    14 ar
    22    13    30 1
    23    14    15 ar
    24    14    31 1
    25    15    16 ar
    26    15    32 1
    27    17    18 2
    28    17    19 1
    29    19    20 1
    30    19    21 1
    31    20    33 1
    32    20    34 1
    33    20    35 1
    34    21    22 1
    35    21    36 1
    36    21    37 1
    37    22    23 1
    38    22    24 1
@<TRIPOS>SUBSTRUCTURE
     1 TOL         1 TEMP              0 ****  ****    0 ROOT
