@<TRIPOS>MOLECULE
TOM
   24    24     1     0     0
SMALL
bcc


@<TRIPOS>ATOM
      1 O8          2.2700   -1.8980   -0.4070 o         1 TOM     -0.568100
      2 C9          2.2360   -0.6620   -0.4280 c         1 TOM      0.447300
      3 C10         3.2040    0.2380    0.3690 c         1 TOM      0.862600
      4 O11         2.8140    0.6240    1.5000 o         1 TOM     -0.806300
      5 O10         4.2950    0.5350   -0.1860 o         1 TOM     -0.806300
      6 C8          1.1920    0.0790   -1.1690 ce        1 TOM     -0.188200
      7 C7          1.1340    0.3280   -2.4810 cf        1 TOM     -0.133200
      8 C1          2.0870   -0.0900   -3.4970 ca        1 TOM     -0.055800
      9 C6          3.4650   -0.1310   -3.2380 ca        1 TOM     -0.099000
     10 C5          4.3640   -0.4870   -4.2420 ca        1 TOM     -0.139000
     11 C4          3.9100   -0.8080   -5.5210 ca        1 TOM     -0.139000
     12 C3          2.5470   -0.7840   -5.8020 ca        1 TOM     -0.158000
     13 C2          1.6450   -0.4230   -4.7940 ca        1 TOM      0.082100
     14 O2          0.3010   -0.3200   -5.1520 os        1 TOM     -0.357900
     15 C11        -0.5140   -1.3470   -4.5920 c3        1 TOM      0.117700
     16 H8          0.4170    0.4910   -0.4950 ha        1 TOM      0.136000
     17 H7          0.2940    0.9230   -2.8860 ha        1 TOM      0.116000
     18 H6          3.8400    0.1240   -2.2210 ha        1 TOM      0.211000
     19 H5          5.4400   -0.5130   -4.0160 ha        1 TOM      0.131000
     20 H4          4.6250   -1.0840   -6.3080 ha        1 TOM      0.114000
     21 H3          2.1690   -1.0350   -6.8020 ha        1 TOM      0.126000
     22 H111       -1.5520   -1.0650   -4.8960 h1        1 TOM      0.036033
     23 H112       -0.2320   -2.3380   -5.0230 h1        1 TOM      0.036033
     24 H113       -0.4160   -1.3690   -3.4790 h1        1 TOM      0.036033
@<TRIPOS>BOND
     1    1    2 2   
     2    2    3 1   
     3    2    6 1   
     4    3    4 1   
     5    3    5 1   
     6    6    7 2   
     7    6   16 1   
     8    7    8 1   
     9    7   17 1   
    10    8    9 ar  
    11    8   13 ar  
    12    9   10 ar  
    13    9   18 1   
    14   10   11 ar  
    15   10   19 1   
    16   11   12 ar  
    17   11   20 1   
    18   12   13 ar  
    19   12   21 1   
    20   13   14 1   
    21   14   15 1   
    22   15   22 1   
    23   15   23 1   
    24   15   24 1   
@<TRIPOS>SUBSTRUCTURE
     1 TOM         1 TEMP              0 ****  ****    0 ROOT
