@<TRIPOS>MOLECULE
molecule
   24    24     1     0     0
SMALL
bcc


@<TRIPOS>ATOM
      1 O8           0.0000     0.0000     0.0000 o          1 TOM      -0.523100
      2 C9           1.2210     0.0000     0.0000 c          1 TOM       0.437300
      3 C10          1.9560     0.0000     1.3220 c          1 TOM       0.821600
      4 O11          1.0730     0.0000     2.3320 o          1 TOM      -0.808300
      5 O10          3.1670     0.0030     1.4150 o          1 TOM      -0.808300
      6 C8           2.0630    -0.0120    -1.2220 ce         1 TOM      -0.187200
      7 C7           1.4880    -0.0300    -2.4440 cf         1 TOM      -0.144200
      8 C1           2.2080    -0.0520    -3.7100 ca         1 TOM      -0.043800
      9 C6           3.4520     0.5720    -3.7910 ca         1 TOM      -0.112000
     10 C5           4.1590     0.5630    -4.9930 ca         1 TOM      -0.141000
     11 C4           3.6230    -0.0700    -6.1140 ca         1 TOM      -0.140000
     12 C3           2.3780    -0.6940    -6.0330 ca         1 TOM      -0.155000
     13 C2           1.6700    -0.6860    -4.8310 ca         1 TOM       0.107100
     14 O2           0.4550    -1.3030    -4.7800 os         1 TOM      -0.353900
     15 C11          0.4460    -2.6810    -4.4130 c3         1 TOM       0.138700
     16 H8           3.1430    -0.0140    -1.1340 ha         1 TOM       0.145000
     17 H7           0.4060    -0.0340    -2.4950 ha         1 TOM       0.146000
     18 H6           3.8490     1.1020    -2.9330 ha         1 TOM       0.148000
     19 H5           5.1260     1.0480    -5.0560 ha         1 TOM       0.123000
     20 H4           4.1690    -0.0690    -7.0490 ha         1 TOM       0.119000
     21 H3           1.9440    -1.1520    -6.9140 ha         1 TOM       0.129000
     22 H111         0.3430    -3.2900    -5.3030 h1         1 TOM       0.033367
     23 H112        -0.3860    -2.8720    -3.7470 h1         1 TOM       0.033367
     24 H113         1.3740    -2.9280    -3.9120 h1         1 TOM       0.033367
@<TRIPOS>BOND
     1     1     2 2
     2     2     3 1
     3     2     6 1
     4     3     5 1
     5     3     4 1
     6     6     7 2
     7     6    16 1
     8     7     8 1
     9     7    17 1
    10     8    13 ar
    11     8     9 ar
    12     9    10 ar
    13     9    18 1
    14    10    11 ar
    15    10    19 1
    16    11    12 ar
    17    11    20 1
    18    12    13 ar
    19    12    21 1
    20    13    14 1
    21    14    15 1
    22    15    22 1
    23    15    23 1
    24    15    24 1
@<TRIPOS>SUBSTRUCTURE
     1 TOM         1 TEMP              0 ****  ****    0 ROOT
