@<TRIPOS>MOLECULE
molecule
   51    51     1     0     0
SMALL
bcc


@<TRIPOS>ATOM
      1 C13          0.0000     0.0000     0.0000 ca         1 TON      -0.092500
      2 C14          1.3810     0.0000     0.0000 ca         1 TON      -0.189000
      3 C15          2.0730     0.0000     1.2030 ca         1 TON       0.117100
      4 O1           3.4320     0.0000     1.2050 os         1 TON      -0.285900
      5 C1           3.8420    -0.0020     2.5730 c3         1 TON       0.118400
      6 C2           5.3700    -0.0010     2.6470 c3         1 TON       0.121400
      7 O2           5.8780     1.1670     1.9990 os         1 TON      -0.380600
      8 C3           7.3020     1.1100     2.1020 c3         1 TON       0.126400
      9 C4           7.9130     2.3380     1.4250 c3         1 TON       0.142400
     10 O3           7.4350     3.5220     2.0670 oh         1 TON      -0.596800
     11 C16          1.3760    -0.0020     2.4010 ca         1 TON      -0.189000
     12 C17         -0.0050     0.0030     2.3950 ca         1 TON      -0.092500
     13 C18         -0.6920    -0.0020     1.1970 ca         1 TON      -0.105300
     14 C5          -2.2000    -0.0020     1.1930 c3         1 TON      -0.013700
     15 C8          -2.7080    -1.2500     0.4690 c3         1 TON      -0.092100
     16 C7          -2.7090     1.2480     0.4730 c3         1 TON      -0.092100
     17 C6          -2.7130    -0.0040     2.6340 c3         1 TON      -0.063400
     18 C9          -4.2310     0.1810     2.6350 c3         1 TON      -0.069000
     19 C12         -4.8520    -0.6860     1.5390 c3         1 TON      -0.091433
     20 C11         -4.5660     1.6500     2.3730 c3         1 TON      -0.091433
     21 C10         -4.7950    -0.2350     3.9950 c3         1 TON      -0.091433
     22 H13         -0.5410    -0.0020    -0.9380 ha         1 TON       0.135500
     23 H14          1.9240     0.0020    -0.9380 ha         1 TON       0.140500
     24 H11          3.4570    -0.8870     3.0640 h1         1 TON       0.050700
     25 H12          3.4560     0.8820     3.0670 h1         1 TON       0.050700
     26 H21          5.7560    -0.8850     2.1530 h1         1 TON       0.034700
     27 H22          5.6810    -0.0030     3.6850 h1         1 TON       0.034700
     28 H31          7.5880     1.0950     3.1470 h1         1 TON       0.031700
     29 H32          7.6640     0.2120     1.6160 h1         1 TON       0.031700
     30 H41          8.9920     2.2940     1.5040 h1         1 TON       0.030200
     31 H42          7.6270     2.3530     0.3800 h1         1 TON       0.030200
     32 HO3          8.0040     4.2440     1.8570 ho         1 TON       0.398000
     33 H162         1.9140     0.0000     3.3410 ha         1 TON       0.140500
     34 H17         -0.5500     0.0020     3.3320 ha         1 TON       0.135500
     35 H81         -3.0130    -1.9910     1.1970 hc         1 TON       0.040533
     36 H82         -1.9170    -1.6560    -0.1500 hc         1 TON       0.040533
     37 H83         -3.5540    -0.9860    -0.1540 hc         1 TON       0.040533
     38 H71         -2.5890     2.1100     1.1170 hc         1 TON       0.040533
     39 H72         -3.7570     1.1220     0.2290 hc         1 TON       0.040533
     40 H73         -2.1420     1.3960    -0.4380 hc         1 TON       0.040533
     41 H61         -2.2500     0.8080     3.1830 hc         1 TON       0.045700
     42 H62         -2.4630    -0.9470     3.1050 hc         1 TON       0.045700
     43 H121        -4.6390    -0.2510     0.5710 hc         1 TON       0.036922
     44 H122        -4.4330    -1.6840     1.5870 hc         1 TON       0.036922
     45 H123        -5.9250    -0.7370     1.6840 hc         1 TON       0.036922
     46 H111        -3.6890     2.2590     2.5600 hc         1 TON       0.036922
     47 H112        -4.8760     1.7710     1.3420 hc         1 TON       0.036922
     48 H113        -5.3680     1.9610     3.0310 hc         1 TON       0.036922
     49 H101        -4.6000    -1.2870     4.1600 hc         1 TON       0.036922
     50 H102        -4.3210     0.3470     4.7760 hc         1 TON       0.036922
     51 H103        -5.8640    -0.0590     4.0110 hc         1 TON       0.036922
@<TRIPOS>BOND
     1     1     2 ar
     2     1    13 ar
     3     1    22 1
     4     2     3 ar
     5     2    23 1
     6     3     4 1
     7     3    11 ar
     8     4     5 1
     9     5     6 1
    10     5    24 1
    11     5    25 1
    12     6     7 1
    13     6    26 1
    14     6    27 1
    15     7     8 1
    16     8     9 1
    17     8    28 1
    18     8    29 1
    19     9    10 1
    20     9    30 1
    21     9    31 1
    22    10    32 1
    23    11    12 ar
    24    11    33 1
    25    12    13 ar
    26    12    34 1
    27    13    14 1
    28    14    15 1
    29    14    16 1
    30    14    17 1
    31    15    35 1
    32    15    36 1
    33    15    37 1
    34    16    38 1
    35    16    39 1
    36    16    40 1
    37    17    18 1
    38    17    41 1
    39    17    42 1
    40    18    19 1
    41    18    20 1
    42    18    21 1
    43    19    43 1
    44    19    44 1
    45    19    45 1
    46    20    46 1
    47    20    47 1
    48    20    48 1
    49    21    49 1
    50    21    50 1
    51    21    51 1
@<TRIPOS>SUBSTRUCTURE
     1 TON         1 TEMP              0 ****  ****    0 ROOT
