@<TRIPOS>MOLECULE
TON
   51    51     1     0     0
SMALL
bcc


@<TRIPOS>ATOM
      1 C13         0.0730   -0.3860    0.0290 ca        1 TON     -0.098000
      2 C14         1.4590   -0.4170    0.0800 ca        1 TON     -0.179500
      3 C15         2.1050   -0.2850    1.3230 ca        1 TON      0.123100
      4 O1          3.4850   -0.3380    1.2700 os        1 TON     -0.332900
      5 C1          4.1650   -0.1140    2.5100 c3        1 TON      0.124400
      6 C2          5.6520   -0.1100    2.1690 c3        1 TON      0.127400
      7 O2          6.0820    1.2470    2.2470 os        1 TON     -0.436600
      8 C3          7.4100    1.4260    1.7570 c3        1 TON      0.087400
      9 C4          7.7390    2.9020    1.9580 c3        1 TON      0.131400
     10 O3          7.8150    3.2350    3.3280 oh        1 TON     -0.599800
     11 C16         1.3540   -0.1320    2.4900 ca        1 TON     -0.179500
     12 C17        -0.0400   -0.1020    2.4130 ca        1 TON     -0.098000
     13 C18        -0.7050   -0.2150    1.1900 ca        1 TON     -0.099300
     14 C5         -2.2180   -0.1930    1.0590 c3        1 TON      0.010300
     15 C8         -2.6510   -1.5800    0.5880 c3        1 TON     -0.087100
     16 C7         -2.6060    0.8450    0.0120 c3        1 TON     -0.087100
     17 C6         -2.8450    0.1470    2.4180 c3        1 TON     -0.064400
     18 C9         -4.3390    0.4530    2.5830 c3        1 TON     -0.047000
     19 C12        -5.2530   -0.4970    1.8310 c3        1 TON     -0.088433
     20 C11        -4.6640    1.8890    2.1920 c3        1 TON     -0.088433
     21 C10        -4.6450    0.3080    4.0800 c3        1 TON     -0.088433
     22 H13        -0.4180   -0.5060   -0.9490 ha        1 TON      0.134000
     23 H14         2.0590   -0.5450   -0.8320 ha        1 TON      0.141000
     24 H11         3.8520    0.8690    2.9490 h1        1 TON      0.055200
     25 H12         3.9270   -0.9500    3.2170 h1        1 TON      0.055200
     26 H21         6.2250   -0.7200    2.9160 h1        1 TON      0.047700
     27 H22         5.8260   -0.5160    1.1370 h1        1 TON      0.047700
     28 H31         8.1170    0.7770    2.3380 h1        1 TON      0.040200
     29 H32         7.4540    1.1560    0.6700 h1        1 TON      0.040200
     30 H41         8.7590    3.1220    1.5460 h1        1 TON      0.054700
     31 H42         6.9700    3.5390    1.4460 h1        1 TON      0.054700
     32 HO3         6.9630    3.0070    3.7210 ho        1 TON      0.412000
     33 H162        1.8400   -0.0370    3.4710 ha        1 TON      0.141000
     34 H17        -0.5930    0.0080    3.3580 ha        1 TON      0.134000
     35 H81        -2.6320   -2.3040    1.4380 hc        1 TON      0.037200
     36 H82        -1.9620   -1.9550   -0.2080 hc        1 TON      0.037200
     37 H83        -3.6800   -1.5550    0.1600 hc        1 TON      0.037200
     38 H71        -2.3810    1.8720    0.3870 hc        1 TON      0.037200
     39 H72        -2.0490    0.6850   -0.9410 hc        1 TON      0.037200
     40 H73        -3.6960    0.7710   -0.2180 hc        1 TON      0.037200
     41 H61        -2.3070    1.0530    2.8140 hc        1 TON      0.040200
     42 H62        -2.6120   -0.7180    3.0990 hc        1 TON      0.040200
     43 H121       -6.3070   -0.3660    2.1790 hc        1 TON      0.034256
     44 H122       -4.9490   -1.5560    2.0150 hc        1 TON      0.034256
     45 H123       -5.2270   -0.2940    0.7340 hc        1 TON      0.034256
     46 H111       -3.9780    2.5990    2.7130 hc        1 TON      0.034256
     47 H112       -4.5680    2.0450    1.0930 hc        1 TON      0.034256
     48 H113       -5.7150    2.1320    2.4850 hc        1 TON      0.034256
     49 H101       -5.7000    0.6060    4.2880 hc        1 TON      0.034256
     50 H102       -4.5060   -0.7500    4.4050 hc        1 TON      0.034256
     51 H103       -3.9660    0.9610    4.6780 hc        1 TON      0.034256
@<TRIPOS>BOND
     1    1    2 ar  
     2    1   13 ar  
     3    1   22 1   
     4    2    3 ar  
     5    2   23 1   
     6    3    4 1   
     7    3   11 ar  
     8    4    5 1   
     9    5    6 1   
    10    5   24 1   
    11    5   25 1   
    12    6    7 1   
    13    6   26 1   
    14    6   27 1   
    15    7    8 1   
    16    8    9 1   
    17    8   28 1   
    18    8   29 1   
    19    9   10 1   
    20    9   30 1   
    21    9   31 1   
    22   10   32 1   
    23   11   12 ar  
    24   11   33 1   
    25   12   13 ar  
    26   12   34 1   
    27   13   14 1   
    28   14   15 1   
    29   14   16 1   
    30   14   17 1   
    31   15   35 1   
    32   15   36 1   
    33   15   37 1   
    34   16   38 1   
    35   16   39 1   
    36   16   40 1   
    37   17   18 1   
    38   17   41 1   
    39   17   42 1   
    40   18   19 1   
    41   18   20 1   
    42   18   21 1   
    43   19   43 1   
    44   19   44 1   
    45   19   45 1   
    46   20   46 1   
    47   20   47 1   
    48   20   48 1   
    49   21   49 1   
    50   21   50 1   
    51   21   51 1   
@<TRIPOS>SUBSTRUCTURE
     1 TON         1 TEMP              0 ****  ****    0 ROOT
