@<TRIPOS>MOLECULE
TOP
   39    40     1     0     0
SMALL
bcc


@<TRIPOS>ATOM
      1 C1           0.0000     0.0000     0.0000 ca         1 TOP       0.486200
      2 N2           1.3230     0.0000     0.0000 nb         1 TOP      -0.675000
      3 C3           2.0050     0.0000     1.1370 ca         1 TOP       0.747900
      4 N4           3.3880    -0.0010     1.0950 nv         1 TOP      -0.635500
      5 N5           1.3950     0.0000     2.3120 nb         1 TOP      -0.690000
      6 C6           0.0680     0.0050     2.3860 ca         1 TOP       0.547200
      7 N7          -0.5670     0.0050     3.6160 nv         1 TOP      -0.553500
      8 C8          -0.6770    -0.0000     1.2050 ca         1 TOP      -0.402900
      9 C9          -2.1830     0.0000     1.2430 c3         1 TOP       0.111200
     10 C10         -2.6850    -1.4190     1.2550 ca         1 TOP      -0.010300
     11 C11         -2.8850    -2.0700     2.4580 ca         1 TOP      -0.249000
     12 C12         -3.3470    -3.3770     2.4740 ca         1 TOP       0.150100
     13 O13         -3.5440    -4.0160     3.6570 os         1 TOP      -0.264400
     14 C14         -3.1900    -3.0910     4.6890 c3         1 TOP       0.212200
     15 C15         -3.6050    -4.0340     1.2760 ca         1 TOP       0.030100
     16 O16         -4.0580    -5.3180     1.2880 os         1 TOP      -0.289900
     17 C17         -2.9060    -6.1630     1.2530 c3         1 TOP       0.230700
     18 C18         -3.4070    -3.3760     0.0700 ca         1 TOP       0.150100
     19 O19         -3.6630    -4.0130    -1.1040 os         1 TOP      -0.264400
     20 C20         -3.3620    -3.0890    -2.1500 c3         1 TOP       0.212200
     21 C21         -2.9450    -2.0690     0.0630 ca         1 TOP      -0.249000
     22 H1          -0.5470    -0.0020    -0.9350 h4         1 TOP      -0.019900
     23 HN41         3.8850     0.8570     0.9570 hn         1 TOP       0.279800
     24 HN42         3.8910    -0.8590     1.2060 hn         1 TOP       0.279800
     25 HN71        -1.4420     0.4780     3.7270 hn         1 TOP       0.276800
     26 HN72        -0.1270    -0.4240     4.4060 hn         1 TOP       0.276800
     27 H91         -2.5650     0.5110     0.3680 hc         1 TOP       0.020200
     28 H92         -2.5220     0.5110     2.1360 hc         1 TOP       0.020200
     29 H11         -2.7220    -1.5440     3.3900 ha         1 TOP       0.138000
     30 H141        -2.1630    -2.7750     4.5530 h1         1 TOP       0.003033
     31 H142        -3.2960    -3.5700     5.6550 h1         1 TOP       0.003033
     32 H143        -3.8430    -2.2280     4.6400 h1         1 TOP       0.003033
     33 H171        -2.0470    -5.6170     1.6250 h1         1 TOP      -0.005967
     34 H172        -2.7200    -6.4780     0.2340 h1         1 TOP      -0.005967
     35 H173        -3.0780    -7.0330     1.8750 h1         1 TOP      -0.005967
     36 H201        -2.3240    -2.7870    -2.0770 h1         1 TOP       0.003033
     37 H202        -3.5330    -3.5620    -3.1100 h1         1 TOP       0.003033
     38 H203        -3.9990    -2.2180    -2.0580 h1         1 TOP       0.003033
     39 H21         -2.7900    -1.5550    -0.8770 ha         1 TOP       0.138000
@<TRIPOS>BOND
     1     1     2 ar  
     2     1     8 ar  
     3     1    22 1   
     4     2     3 ar  
     5     3     4 1   
     6     3     5 ar  
     7     4    23 1   
     8     4    24 1   
     9     5     6 ar  
    10     6     7 1   
    11     6     8 ar  
    12     7    25 1   
    13     7    26 1   
    14     8     9 1   
    15     9    10 1   
    16     9    27 1   
    17     9    28 1   
    18    10    11 ar  
    19    10    21 ar  
    20    11    12 ar  
    21    11    29 1   
    22    12    13 1   
    23    12    15 ar  
    24    13    14 1   
    25    14    30 1   
    26    14    31 1   
    27    14    32 1   
    28    15    16 1   
    29    15    18 ar  
    30    16    17 1   
    31    17    33 1   
    32    17    34 1   
    33    17    35 1   
    34    18    19 1   
    35    18    21 ar  
    36    19    20 1   
    37    20    36 1   
    38    20    37 1   
    39    20    38 1   
    40    21    39 1   
@<TRIPOS>SUBSTRUCTURE
     1 TOP         1 TEMP              0 ****  ****    0 ROOT
