@<TRIPOS>MOLECULE
TOR
   44    46     1     0     0
SMALL
bcc


@<TRIPOS>ATOM
      1 CAT          0.0000     0.0000     0.0000 c3         1 TOR      -0.029600
      2 CAU          1.5300     0.0000     0.0000 c3         1 TOR       0.342600
      3 CAV          2.0450    -1.2430    -0.7290 c3         1 TOR      -0.029600
      4 OAR          2.0130     0.0000     1.3550 os         1 TOR      -0.410600
      5 OAQ          2.0150     1.1840    -0.6590 os         1 TOR      -0.391600
      6 CAK          2.2440     2.1320     0.4250 c3         1 TOR       0.067100
      7 CAG          0.8690     2.6940     0.8000 c3         1 TOR       0.103100
      8 OAF          0.7540     3.9750     0.1120 os         1 TOR      -0.383600
      9 CAE          1.5390     4.8800     0.9120 c3         1 TOR       0.347600
     10 CAD          0.8920     6.2670     0.9040 c3         1 TOR      -0.028100
     11 CAJ          2.9570     4.9690     0.3450 c3         1 TOR      -0.028100
     12 OAA          1.5880     4.3760     2.2570 os         1 TOR      -0.404600
     13 CAB          0.8260     3.1630     2.2640 c3         1 TOR       0.113100
     14 CAC          1.3880     2.1210     3.2090 c3         1 TOR       0.220400
     15 OAH          2.7040     1.7490     2.8020 os         1 TOR      -0.398600
     16 CAL          2.7910     1.1940     1.5070 c3         1 TOR       0.341600
     17 CAM          4.2580     0.8790     1.2060 c3         1 TOR       0.229400
     18 OAN          4.7370    -0.0950     2.1370 os         1 TOR      -0.408500
     19 SAO          6.1930    -0.4840     1.9310 s6         1 TOR       1.272400
     20 OAS          6.4390    -1.5870     2.7940 o          1 TOR      -0.506800
     21 OAI          6.4000    -0.5360     0.5260 o          1 TOR      -0.506800
     22 NAP          7.1210     0.7660     2.4950 nz         1 TOR      -0.174500
     23 HAT         -0.3610     0.7070    -0.7370 hc         1 TOR       0.028700
     24 HATA        -0.3610    -0.9920    -0.2430 hc         1 TOR       0.028700
     25 HATB        -0.3610     0.2850     0.9810 hc         1 TOR       0.028700
     26 HAV          2.0120    -2.0940    -0.0590 hc         1 TOR       0.028700
     27 HAVA         3.0660    -1.0760    -1.0500 hc         1 TOR       0.028700
     28 HAVB         1.4220    -1.4390    -1.5930 hc         1 TOR       0.028700
     29 HAK          2.9510     2.9060     0.1500 h1         1 TOR       0.098700
     30 HAG          0.0580     2.0200     0.5540 h1         1 TOR       0.100700
     31 HAD          0.9340     6.6790    -0.0970 hc         1 TOR       0.022867
     32 HADA         1.4270     6.9180     1.5850 hc         1 TOR       0.022867
     33 HADB        -0.1410     6.1850     1.2180 hc         1 TOR       0.022867
     34 HAJ          2.9810     4.5200    -0.6410 hc         1 TOR       0.022867
     35 HAJA         3.6410     4.4410     0.9990 hc         1 TOR       0.022867
     36 HAJB         3.2530     6.0090     0.2760 hc         1 TOR       0.022867
     37 HAB         -0.1980     3.3830     2.5410 h1         1 TOR       0.048700
     38 HAC          1.4270     2.5320     4.2110 h1         1 TOR       0.038700
     39 HACA         0.7490     1.2470     3.1980 h1         1 TOR       0.038700
     40 HAM          4.8470     1.7830     1.2950 h1         1 TOR       0.030700
     41 HAMA         4.3450     0.4890     0.1990 h1         1 TOR       0.030700
     42 HNAP         7.2000     1.4690     1.7870 hn         1 TOR       0.323467
     43 HNAA         6.6910     1.1600     3.3090 hn         1 TOR       0.323467
     44 HAP3         8.0320     0.4260     2.7310 hn         1 TOR       0.323467
@<TRIPOS>BOND
     1     1     2 1   
     2     1    23 1   
     3     1    24 1   
     4     1    25 1   
     5     2     3 1   
     6     2     4 1   
     7     2     5 1   
     8     3    26 1   
     9     3    27 1   
    10     3    28 1   
    11     4    16 1   
    12     5     6 1   
    13     6     7 1   
    14     6    16 1   
    15     6    29 1   
    16     7     8 1   
    17     7    13 1   
    18     7    30 1   
    19     8     9 1   
    20     9    10 1   
    21     9    11 1   
    22     9    12 1   
    23    10    31 1   
    24    10    32 1   
    25    10    33 1   
    26    11    34 1   
    27    11    35 1   
    28    11    36 1   
    29    12    13 1   
    30    13    14 1   
    31    13    37 1   
    32    14    15 1   
    33    14    38 1   
    34    14    39 1   
    35    15    16 1   
    36    16    17 1   
    37    17    18 1   
    38    17    40 1   
    39    17    41 1   
    40    18    19 1   
    41    19    20 2   
    42    19    21 2   
    43    19    22 1   
    44    22    42 1   
    45    22    43 1   
    46    22    44 1   
@<TRIPOS>SUBSTRUCTURE
     1 TOR         1 TEMP              0 ****  ****    0 ROOT
