@<TRIPOS>MOLECULE
molecule
   18    18     1     0     0
SMALL
bcc


@<TRIPOS>ATOM
      1 S            0.0000     0.0000     0.0000 sx         1 TOS       0.672500
      2 O1S          1.4210     0.0000     0.0000 o          1 TOS      -0.534200
      3 O2S         -0.3430     0.0000     1.4830 oh         1 TOS      -0.635800
      4 C1          -0.3950     1.6430    -0.4990 ca         1 TOS      -0.142500
      5 C2          -0.8150     1.8900    -1.7920 ca         1 TOS      -0.049000
      6 C3          -1.1260     3.1790    -2.1840 ca         1 TOS      -0.144000
      7 C4          -1.0170     4.2220    -1.2820 ca         1 TOS      -0.048300
      8 C5          -0.5980     3.9730     0.0120 ca         1 TOS      -0.144000
      9 C6          -0.2920     2.6840     0.4040 ca         1 TOS      -0.049000
     10 C           -1.3540     5.6260    -1.7090 c3         1 TOS      -0.052800
     11 HOS2        -0.6580    -0.8530     1.7320 ho         1 TOS       0.459000
     12 H2          -0.9000     1.0740    -2.4990 ha         1 TOS       0.134500
     13 H3          -1.4540     3.3730    -3.1980 ha         1 TOS       0.132000
     14 H5          -0.5150     4.7880     0.7200 ha         1 TOS       0.132000
     15 H6           0.0360     2.4900     1.4190 ha         1 TOS       0.134500
     16 H1          -0.5620     6.0120    -2.3380 hc         1 TOS       0.046033
     17 H2A         -1.4580     6.2550    -0.8330 hc         1 TOS       0.046033
     18 H3A         -2.2850     5.6210    -2.2620 hc         1 TOS       0.046033
@<TRIPOS>BOND
     1     1     2 2
     2     1     3 1
     3     1     4 1
     4     3    11 1
     5     4     5 ar
     6     4     9 ar
     7     5     6 ar
     8     5    12 1
     9     6     7 ar
    10     6    13 1
    11     7     8 ar
    12     7    10 1
    13     8     9 ar
    14     8    14 1
    15     9    15 1
    16    10    16 1
    17    10    17 1
    18    10    18 1
@<TRIPOS>SUBSTRUCTURE
     1 TOS         1 TEMP              0 ****  ****    0 ROOT
