@<TRIPOS>MOLECULE
TOS
   18    18     1     0     0
SMALL
bcc


@<TRIPOS>ATOM
      1 S           0.3910    0.0990   -0.1180 sx        1 TOS      0.633500
      2 O1S         0.9330    0.1290    1.2450 o         1 TOS     -0.535200
      3 O2S        -1.0630   -0.6980    0.2610 oh        1 TOS     -0.594800
      4 C1         -0.1470    1.6680   -0.4840 ca        1 TOS     -0.194500
      5 C2         -0.9170    1.8700   -1.6350 ca        1 TOS     -0.037500
      6 C3         -1.3110    3.1490   -2.0130 ca        1 TOS     -0.155000
      7 C4         -0.9410    4.2580   -1.2400 ca        1 TOS     -0.026300
      8 C5         -0.1760    4.0610   -0.0840 ca        1 TOS     -0.155000
      9 C6          0.2080    2.7770    0.2910 ca        1 TOS     -0.037500
     10 C          -1.3700    5.6200   -1.6340 c3        1 TOS     -0.064800
     11 HOS2       -1.2200   -0.7390    1.2060 ho        1 TOS      0.449000
     12 H2         -1.2240    1.0030   -2.2430 ha        1 TOS      0.146500
     13 H3         -1.9170    3.2940   -2.9200 ha        1 TOS      0.137500
     14 H5          0.1170    4.9240    0.5320 ha        1 TOS      0.137500
     15 H6          0.7970    2.6210    1.2120 ha        1 TOS      0.146500
     16 H1         -2.3760    5.8410   -1.1930 hc        1 TOS      0.050367
     17 H2A        -1.4480    5.7100   -2.7450 hc        1 TOS      0.050367
     18 H3A        -0.6500    6.3910   -1.2650 hc        1 TOS      0.050367
@<TRIPOS>BOND
     1    1    2 2   
     2    1    3 1   
     3    1    4 1   
     4    3   11 1   
     5    4    5 ar  
     6    4    9 ar  
     7    5    6 ar  
     8    5   12 1   
     9    6    7 ar  
    10    6   13 1   
    11    7    8 ar  
    12    7   10 1   
    13    8    9 ar  
    14    8   14 1   
    15    9   15 1   
    16   10   16 1   
    17   10   17 1   
    18   10   18 1   
@<TRIPOS>SUBSTRUCTURE
     1 TOS         1 TEMP              0 ****  ****    0 ROOT
