@<TRIPOS>MOLECULE
molecule
   10     9     1     0     0
SMALL
bcc


@<TRIPOS>ATOM
      1 C            0.0000     0.0000     0.0000 cs         1 TOU      -0.114600
      2 S            1.7120     0.0000     0.0000 s          1 TOU       0.329600
      3 N1          -0.6740     0.0000     1.1670 nz         1 TOU      -0.602400
      4 N2          -0.6740     0.0000    -1.1670 nz         1 TOU      -0.602400
      5 HN11        -1.2490     0.8170     1.2200 hn         1 TOU       0.498300
      6 HN12        -0.0240     0.0000     1.9280 hn         1 TOU       0.498300
      7 HN21        -1.2490     0.8170    -1.2200 hn         1 TOU       0.498300
      8 HN22        -1.2490    -0.8170    -1.2200 hn         1 TOU       0.498300
      9 H13         -1.2220    -0.8350     1.2360 hn         1 TOU       0.498300
     10 H23         -0.0250     0.0470    -1.9270 hn         1 TOU       0.498300
@<TRIPOS>BOND
     1     1     2 2
     2     1     3 1
     3     1     4 1
     4     3     5 1
     5     3     6 1
     6     4     7 1
     7     4     8 1
     8     9     3 1
     9    10     4 1
@<TRIPOS>SUBSTRUCTURE
     1 TOU         1 TEMP              0 ****  ****    0 ROOT
