@<TRIPOS>MOLECULE
TP0
   44    46     1     0     0
SMALL
bcc


@<TRIPOS>ATOM
      1 N1           0.0000     0.0000     0.0000 n3         1 TP0      -0.548600
      2 C3           4.1550    -1.5780     1.7150 ce         1 TP0      -0.016400
      3 C4           6.1260    -0.4570     2.6090 ca         1 TP0      -0.071300
      4 C5           3.6500    -1.5690     4.1870 ca         1 TP0      -0.071300
      5 C6           5.6240    -1.3980     1.7450 ca         1 TP0      -0.030300
      6 C7           3.4100    -2.0350     2.9080 ca         1 TP0      -0.030300
      7 C8           3.4860    -1.3170     0.5870 c2         1 TP0      -0.138200
      8 C10          7.4940    -0.2380     2.6650 ca         1 TP0      -0.107500
      9 C11          2.8990    -2.1080     5.2360 ca         1 TP0      -0.107500
     10 C12          6.4640    -2.1490     0.9280 ca         1 TP0      -0.095500
     11 C13          2.4150    -2.9990     2.6860 ca         1 TP0      -0.095500
     12 C14          1.4690     0.0000     0.0000 c3         1 TP0       0.158800
     13 C15          8.3370    -0.9780     1.8550 ca         1 TP0      -0.100000
     14 C16          1.9300    -3.0590     5.0160 ca         1 TP0      -0.100000
     15 C17          7.8290    -1.9320     0.9910 ca         1 TP0      -0.107000
     16 C18          1.6790    -3.5070     3.7310 ca         1 TP0      -0.107000
     17 C19         -0.5270     0.0000     1.3710 c3         1 TP0       0.181100
     18 C20         -0.5280     1.1370    -0.7670 c3         1 TP0       0.181100
     19 C21          5.2030     0.3200     3.4950 c3         1 TP0       0.034900
     20 C22          4.6240    -0.5010     4.6140 c3         1 TP0       0.034900
     21 C29          1.9790    -1.3170     0.5870 c3         1 TP0      -0.025200
     22 H8           4.0270    -1.1390    -0.3350 ha         1 TP0       0.111000
     23 H10          7.9000     0.5060     3.3390 ha         1 TP0       0.104500
     24 H11          3.0840    -1.7680     6.2480 ha         1 TP0       0.104500
     25 H12          6.0560    -2.8930     0.2550 ha         1 TP0       0.114500
     26 H13          2.2220    -3.3460     1.6790 ha         1 TP0       0.114500
     27 H14          1.8300     0.1070    -1.0160 h1         1 TP0       0.008700
     28 H14A         1.8300     0.8260     0.6000 h1         1 TP0       0.008700
     29 H15          9.4070    -0.8120     1.9010 ha         1 TP0       0.101500
     30 H16          1.3580    -3.4510     5.8480 ha         1 TP0       0.101500
     31 H17          8.4990    -2.5050     0.3620 ha         1 TP0       0.104000
     32 H18          0.9170    -4.2560     3.5510 ha         1 TP0       0.104000
     33 H19          0.1540     0.5370     2.0200 h1         1 TP0       0.001367
     34 H19A        -1.4960     0.4840     1.3860 h1         1 TP0       0.001367
     35 H19B        -0.6290    -1.0210     1.7190 h1         1 TP0       0.001367
     36 H20         -0.2160     2.0640    -0.3000 h1         1 TP0       0.001367
     37 H20A        -0.1470     1.0970    -1.7800 h1         1 TP0       0.001367
     38 H20B        -1.6100     1.0890    -0.7860 h1         1 TP0       0.001367
     39 H21          4.3840     0.6860     2.8880 hc         1 TP0       0.022450
     40 H21A         5.7660     1.1350     3.9340 hc         1 TP0       0.022450
     41 H22          4.1140     0.1680     5.2970 hc         1 TP0       0.022450
     42 H22A         5.4400    -0.9790     5.1410 hc         1 TP0       0.022450
     43 H29          1.6180    -2.1440    -0.0140 hc         1 TP0       0.041700
     44 H29A         1.6180    -1.4240     1.6020 hc         1 TP0       0.041700
@<TRIPOS>BOND
     1     1    12 1   
     2     1    17 1   
     3     1    18 1   
     4     2     5 1   
     5     2     6 1   
     6     2     7 2   
     7     3     5 ar  
     8     3     8 ar  
     9     3    19 1   
    10     4     6 ar  
    11     4     9 ar  
    12     4    20 1   
    13     5    10 ar  
    14     6    11 ar  
    15     7    21 1   
    16     7    22 1   
    17     8    13 ar  
    18     8    23 1   
    19     9    14 ar  
    20     9    24 1   
    21    10    15 ar  
    22    10    25 1   
    23    11    16 ar  
    24    11    26 1   
    25    12    21 1   
    26    12    27 1   
    27    12    28 1   
    28    13    15 ar  
    29    13    29 1   
    30    14    16 ar  
    31    14    30 1   
    32    15    31 1   
    33    16    32 1   
    34    17    33 1   
    35    17    34 1   
    36    17    35 1   
    37    18    36 1   
    38    18    37 1   
    39    18    38 1   
    40    19    20 1   
    41    19    39 1   
    42    19    40 1   
    43    20    41 1   
    44    20    42 1   
    45    21    43 1   
    46    21    44 1   
@<TRIPOS>SUBSTRUCTURE
     1 TP0         1 TEMP              0 ****  ****    0 ROOT
