@<TRIPOS>MOLECULE
TP2
   41    42     1     0     0
SMALL
bcc


@<TRIPOS>ATOM
      1 S1           0.0000     0.0000     0.0000 sh         1 TP2      -0.383900
      2 C2           1.8130     0.0000     0.0000 c3         1 TP2       0.084700
      3 C3           2.3230     0.0000     1.4430 c3         1 TP2       0.073000
      4 N4           3.7880    -0.0010     1.4430 ns         1 TP2      -0.201900
      5 C5           4.4610    -0.0010     2.6100 c          1 TP2       0.562100
      6 C6           5.9680    -0.0010     2.6110 c3         1 TP2       0.148500
      7 N7           6.4790    -0.7970     3.7410 n3         1 TP2      -0.528500
      8 S8           5.8060    -2.1960     4.3160 sy         1 TP2       1.075200
      9 C9           6.6740    -3.5390     3.5800 ca         1 TP2      -0.174500
     10 C10          7.8890    -3.9470     4.1000 ca         1 TP2       0.009000
     11 C11          8.5690    -5.0040     3.5240 ca         1 TP2      -0.137000
     12 C12          8.0360    -5.6510     2.4260 ca         1 TP2      -0.036300
     13 C13          6.8240    -5.2400     1.9010 ca         1 TP2      -0.137000
     14 C14          6.1410    -4.1870     2.4810 ca         1 TP2       0.009000
     15 C15          8.7770    -6.8020     1.7960 c3         1 TP2       0.056200
     16 O16          4.4930    -2.2430     3.7780 o          1 TP2      -0.572800
     17 O17          6.1300    -2.2400     5.6990 o          1 TP2      -0.572800
     18 C18          7.6870    -0.1470     4.2670 c3         1 TP2       0.246800
     19 C19          7.9170     1.1340     3.4380 c3         1 TP2      -0.035400
     20 C20          6.5080     1.4310     2.8620 c3         1 TP2      -0.023400
     21 O21          3.8550    -0.0010     3.6600 o          1 TP2      -0.595100
     22 HS1         -0.4430    -0.1090    -1.2470 hs         1 TP2       0.184800
     23 HC21         2.1740    -0.8850    -0.5110 h1         1 TP2       0.028200
     24 HC22         2.1740     0.8840    -0.5110 h1         1 TP2       0.028200
     25 HC31         1.9630     0.8850     1.9530 h1         1 TP2       0.045700
     26 HC32         1.9620    -0.8840     1.9540 h1         1 TP2       0.045700
     27 HN41         4.2880     0.0360     0.5770 hn         1 TP2       0.164500
     28 HC61         6.3520    -0.3880     1.6750 h1         1 TP2       0.014700
     29 H101         8.3070    -3.4400     4.9610 ha         1 TP2       0.120500
     30 H111         9.5190    -5.3240     3.9330 ha         1 TP2       0.111000
     31 H131         6.4070    -5.7480     1.0400 ha         1 TP2       0.111000
     32 H141         5.1920    -3.8650     2.0690 ha         1 TP2       0.120500
     33 H151         9.5590    -7.1380     2.4660 hc         1 TP2       0.011367
     34 H152         9.2190    -6.4780     0.8600 hc         1 TP2       0.011367
     35 H153         8.0880    -7.6160     1.6070 hc         1 TP2       0.011367
     36 H181         7.5410     0.1100     5.3090 h1         1 TP2       0.012200
     37 H182         8.5370    -0.8110     4.1610 h1         1 TP2       0.012200
     38 H191         8.6250     0.9500     2.6390 hc         1 TP2       0.020700
     39 H192         8.2480     1.9460     4.0740 hc         1 TP2       0.020700
     40 H201         5.8970     1.9530     3.5880 hc         1 TP2       0.029700
     41 H202         6.5800     1.9850     1.9340 hc         1 TP2       0.029700
@<TRIPOS>BOND
     1     1     2 1   
     2     1    22 1   
     3     2     3 1   
     4     2    23 1   
     5     2    24 1   
     6     3     4 1   
     7     3    25 1   
     8     3    26 1   
     9     4     5 1   
    10     4    27 1   
    11     5     6 1   
    12     5    21 2   
    13     6     7 1   
    14     6    20 1   
    15     6    28 1   
    16     7     8 1   
    17     7    18 1   
    18     8     9 1   
    19     8    16 2   
    20     8    17 2   
    21     9    10 ar  
    22     9    14 ar  
    23    10    11 ar  
    24    10    29 1   
    25    11    12 ar  
    26    11    30 1   
    27    12    13 ar  
    28    12    15 1   
    29    13    14 ar  
    30    13    31 1   
    31    14    32 1   
    32    15    33 1   
    33    15    34 1   
    34    15    35 1   
    35    18    19 1   
    36    18    36 1   
    37    18    37 1   
    38    19    20 1   
    39    19    38 1   
    40    19    39 1   
    41    20    40 1   
    42    20    41 1   
@<TRIPOS>SUBSTRUCTURE
     1 TP2         1 TEMP              0 ****  ****    0 ROOT
