@<TRIPOS>MOLECULE
molecule
   46    47     1     0     0
SMALL
bcc


@<TRIPOS>ATOM
      1 C1           0.0000     0.0000     0.0000 c3         1 TP3      -0.108400
      2 C2           1.5480     0.0000     0.0000 c3         1 TP3       0.251800
      3 N3           1.9260     0.0000     1.4250 n3         1 TP3      -0.797500
      4 C4           0.8170     0.5630     2.2070 c3         1 TP3       0.144500
      5 C5          -0.3110     0.9150     1.2150 c3         1 TP3      -0.064400
      6 C6           1.2770     1.8080     2.9190 c          1 TP3       0.891600
      7 O7           2.2040     2.4480     2.4800 o          1 TP3      -0.844800
      8 O8           0.6590     2.2080     4.0420 o          1 TP3      -0.844800
      9 S9           3.3600    -0.5520     2.0430 sy         1 TP3       1.453200
     10 C10          3.1950    -2.2880     2.2880 ca         1 TP3      -0.318500
     11 O11          3.4630     0.0140     3.3420 o          1 TP3      -0.639800
     12 O12          4.3140    -0.3970     1.0000 o          1 TP3      -0.639800
     13 C13          3.4740    -3.1600     1.2500 ca         1 TP3      -0.049500
     14 C14          3.3480    -4.5200     1.4360 ca         1 TP3      -0.124500
     15 C15          2.9380    -5.0170     2.6740 ca         1 TP3      -0.066600
     16 C16          2.6530    -4.1330     3.7140 ca         1 TP3      -0.124500
     17 C17          2.7890    -2.7760     3.5170 ca         1 TP3      -0.049500
     18 C18          2.8000    -6.4750     2.8800 c          1 TP3       0.652700
     19 N19          2.4050    -6.9520     4.0760 ns         1 TP3      -0.503900
     20 C20          2.2690    -8.3960     4.2800 c3         1 TP3      -0.000300
     21 C21          2.5520    -8.7340     5.7450 c3         1 TP3      -0.063400
     22 C22          3.9750    -8.3010     6.1010 c3         1 TP3      -0.185400
     23 C23          4.2560    -8.6330     7.5440 c          1 TP3       0.892600
     24 O24          3.0440    -7.2430     1.9690 o          1 TP3      -0.651100
     25 C25          0.8660    -8.8230     3.9290 c          1 TP3       0.894600
     26 O26          0.6620    -9.9340     3.5030 o          1 TP3      -0.863300
     27 O27         -0.1550    -7.9680     4.0910 o          1 TP3      -0.863300
     28 O28          5.4500    -8.3410     8.0800 o          1 TP3      -0.876800
     29 O29          3.4050    -9.1620     8.2180 o          1 TP3      -0.876800
     30 HC11        -0.3860     0.4310    -0.9160 hc         1 TP3       0.032700
     31 HC12        -0.3850    -1.0000     0.1610 hc         1 TP3       0.032700
     32 HC21         1.9230     0.8910    -0.4880 h1         1 TP3       0.030700
     33 HC22         1.9230    -0.8910    -0.4880 h1         1 TP3       0.030700
     34 HC41         0.4630    -0.1690     2.9230 h1         1 TP3       0.051700
     35 HC51        -0.2570     1.9590     0.9300 hc         1 TP3       0.044200
     36 HC52        -1.2800     0.6730     1.6360 hc         1 TP3       0.044200
     37 H131         3.7920    -2.7740     0.2890 ha         1 TP3       0.141500
     38 H141         3.5690    -5.2010     0.6230 ha         1 TP3       0.145500
     39 H161         2.3350    -4.5120     4.6780 ha         1 TP3       0.145500
     40 H171         2.5670    -2.0890     4.3250 ha         1 TP3       0.141500
     41 H191         2.1820    -6.3180     4.8180 hn         1 TP3       0.313500
     42 H201         2.9750    -8.9190     3.6460 h1         1 TP3       0.063700
     43 H211         2.4510    -9.8020     5.8960 hc         1 TP3       0.055200
     44 H212         1.8460    -8.2110     6.3790 hc         1 TP3       0.055200
     45 H221         4.6810    -8.8220     5.4660 hc         1 TP3       0.025200
     46 H222         4.0760    -7.2320     5.9500 hc         1 TP3       0.025200
@<TRIPOS>BOND
     1     1     2 1
     2     1     5 1
     3     1    30 1
     4     1    31 1
     5     2     3 1
     6     2    32 1
     7     2    33 1
     8     3     4 1
     9     3     9 1
    10     4     5 1
    11     4     6 1
    12     4    34 1
    13     5    35 1
    14     5    36 1
    15     6     7 1
    16     6     8 1
    17     9    10 1
    18     9    11 2
    19     9    12 2
    20    10    13 ar
    21    10    17 ar
    22    13    14 ar
    23    13    37 1
    24    14    15 ar
    25    14    38 1
    26    15    16 ar
    27    15    18 1
    28    16    17 ar
    29    16    39 1
    30    17    40 1
    31    18    19 1
    32    18    24 2
    33    19    20 1
    34    19    41 1
    35    20    21 1
    36    20    25 1
    37    20    42 1
    38    21    22 1
    39    21    43 1
    40    21    44 1
    41    22    23 1
    42    22    45 1
    43    22    46 1
    44    23    28 1
    45    23    29 1
    46    25    26 1
    47    25    27 1
@<TRIPOS>SUBSTRUCTURE
     1 TP3         1 TEMP              0 ****  ****    0 ROOT
