@<TRIPOS>MOLECULE
molecule
   56    57     1     0     0
SMALL
bcc


@<TRIPOS>ATOM
      1 C1           0.0000     0.0000     0.0000 c3         1 TP4      -0.099400
      2 C2           1.5490     0.0000     0.0000 c3         1 TP4       0.247800
      3 N3           1.9260     0.0000     1.4280 n3         1 TP4      -0.803500
      4 C4           0.8180     0.5730     2.2050 c3         1 TP4       0.173500
      5 C5          -0.3120     0.9160     1.2120 c3         1 TP4      -0.079400
      6 C6           1.2780     1.8230     2.9100 c          1 TP4       0.644100
      7 O7           2.2070     2.4620     2.4670 o          1 TP4      -0.611100
      8 N8           0.6550     2.2300     4.0330 ns         1 TP4      -0.574900
      9 S9           3.3610    -0.5490     2.0470 sy         1 TP4       1.448200
     10 C10          3.1800    -2.2760     2.3440 ca         1 TP4      -0.326500
     11 O11          4.3050    -0.4350     0.9910 o          1 TP4      -0.634300
     12 O12          3.4840     0.0530     3.3290 o          1 TP4      -0.634300
     13 C13          3.5570    -3.1840     1.3720 ca         1 TP4      -0.049500
     14 C14          3.4180    -4.5370     1.5980 ca         1 TP4      -0.120000
     15 C15          2.8980    -4.9900     2.8120 ca         1 TP4      -0.053600
     16 C16          2.5200    -4.0670     3.7880 ca         1 TP4      -0.120000
     17 C17          2.6680    -2.7160     3.5510 ca         1 TP4      -0.049500
     18 C18          2.7450    -6.4390     3.0600 c          1 TP4       0.647700
     19 N19          2.2420    -6.8720     4.2330 ns         1 TP4      -0.498900
     20 C20          2.0930    -8.3080     4.4790 c3         1 TP4      -0.001300
     21 C21          2.2410    -8.5860     5.9770 c3         1 TP4      -0.063400
     22 C22          3.6220    -8.1300     6.4460 c3         1 TP4      -0.185400
     23 C23          3.7680    -8.4040     7.9210 c          1 TP4       0.891600
     24 O24          3.0750    -7.2400     2.2080 o          1 TP4      -0.643100
     25 C25          0.7300    -8.7580     4.0180 c          1 TP4       0.893600
     26 O26          0.5700    -9.8870     3.6190 o          1 TP4      -0.861800
     27 O27         -0.3050    -7.9030     4.0510 o          1 TP4      -0.861800
     28 O28          4.9080    -8.0830     8.5530 o          1 TP4      -0.873300
     29 O29          2.8600    -8.9120     8.5330 o          1 TP4      -0.873300
     30 C30          1.1020     3.4450     4.7190 c3         1 TP4       0.120000
     31 C31          0.2340     3.6800     5.9560 c3         1 TP4      -0.203400
     32 C32          0.6940     4.9310     6.6620 c          1 TP4       0.897600
     33 O33          0.0740     5.3370     7.7810 o          1 TP4      -0.855300
     34 O34          1.6200     5.5670     6.2200 o          1 TP4      -0.855300
     35 HC11        -0.3860     0.4290    -0.9170 hc         1 TP4       0.048200
     36 HC12        -0.3860    -0.9990     0.1630 hc         1 TP4       0.048200
     37 HC21         1.9250    -0.8910    -0.4880 h1         1 TP4       0.045700
     38 HC22         1.9250     0.8910    -0.4880 h1         1 TP4       0.045700
     39 HC41         0.4630    -0.1530     2.9260 h1         1 TP4       0.059700
     40 HC51        -0.2630     1.9590     0.9240 hc         1 TP4       0.054200
     41 HC52        -1.2790     0.6730     1.6350 hc         1 TP4       0.054200
     42 HN81        -0.0970     1.6890     4.4120 hn         1 TP4       0.301500
     43 H131         3.9600    -2.8310     0.4300 ha         1 TP4       0.139000
     44 H141         3.7130    -5.2480     0.8360 ha         1 TP4       0.153000
     45 H161         2.1170    -4.4110     4.7330 ha         1 TP4       0.153000
     46 H171         2.3750    -1.9990     4.3080 ha         1 TP4       0.139000
     47 H191         1.9260    -6.2120     4.9150 hn         1 TP4       0.312500
     48 H201         2.8560    -8.8490     3.9340 h1         1 TP4       0.065700
     49 H211         2.1300    -9.6480     6.1600 hc         1 TP4       0.057700
     50 H212         1.4770    -8.0440     6.5220 hc         1 TP4       0.057700
     51 H221         4.3860    -8.6710     5.9000 hc         1 TP4       0.024200
     52 H222         3.7330    -7.0670     6.2640 hc         1 TP4       0.024200
     53 H301         1.0130     4.2920     4.0480 h1         1 TP4       0.061700
     54 H302         2.1360     3.3310     5.0200 h1         1 TP4       0.061700
     55 H311        -0.8010     3.7960     5.6550 hc         1 TP4       0.032200
     56 H312         0.3230     2.8340     6.6270 hc         1 TP4       0.032200
@<TRIPOS>BOND
     1     1     2 1
     2     1     5 1
     3     1    35 1
     4     1    36 1
     5     2     3 1
     6     2    37 1
     7     2    38 1
     8     3     4 1
     9     3     9 1
    10     4     5 1
    11     4     6 1
    12     4    39 1
    13     5    40 1
    14     5    41 1
    15     6     7 2
    16     6     8 1
    17     8    30 1
    18     8    42 1
    19     9    10 1
    20     9    11 2
    21     9    12 2
    22    10    13 ar
    23    10    17 ar
    24    13    14 ar
    25    13    43 1
    26    14    15 ar
    27    14    44 1
    28    15    16 ar
    29    15    18 1
    30    16    17 ar
    31    16    45 1
    32    17    46 1
    33    18    19 1
    34    18    24 2
    35    19    20 1
    36    19    47 1
    37    20    21 1
    38    20    25 1
    39    20    48 1
    40    21    22 1
    41    21    49 1
    42    21    50 1
    43    22    23 1
    44    22    51 1
    45    22    52 1
    46    23    28 1
    47    23    29 1
    48    25    26 1
    49    25    27 1
    50    30    31 1
    51    30    53 1
    52    30    54 1
    53    31    32 1
    54    31    55 1
    55    31    56 1
    56    32    33 1
    57    32    34 1
@<TRIPOS>SUBSTRUCTURE
     1 TP4         1 TEMP              0 ****  ****    0 ROOT
