@<TRIPOS>MOLECULE
molecule
   15    15     1     0     0
SMALL
bcc


@<TRIPOS>ATOM
      1 C4           0.0000     0.0000     0.0000 cc         1 TP5      -0.118100
      2 S1           1.7330     0.0000     0.0000 ss         1 TP5       0.020200
      3 C5           2.0070     0.0000     1.7620 cc         1 TP5      -0.028100
      4 C3           0.7470     0.0060     2.2500 cd         1 TP5      -0.132000
      5 C1          -0.3040     0.0010     1.3340 cd         1 TP5      -0.222900
      6 C2          -1.7080     0.0020     1.7910 cf         1 TP5       0.552800
      7 N2          -2.7330     0.0020     0.8690 nz         1 TP5      -0.800600
      8 N1          -1.9790     0.0020     3.0670 n2         1 TP5      -0.679100
      9 HC4         -0.6750    -0.0020    -0.8470 h4         1 TP5       0.177000
     10 HC5          2.9450     0.0010     2.3040 h4         1 TP5       0.220000
     11 HC3          0.5600     0.0070     3.3170 ha         1 TP5       0.186000
     12 HN21        -2.6670    -0.8160     0.2960 hn         1 TP5       0.464133
     13 HN22        -2.6650     0.8190     0.2940 hn         1 TP5       0.464133
     14 HN1         -2.9300     0.0030     3.3780 hn         1 TP5       0.431400
     15 H23         -3.6120     0.0030     1.3480 hn         1 TP5       0.464133
@<TRIPOS>BOND
     1     1     2 1
     2     1     5 2
     3     1     9 1
     4     2     3 1
     5     3     4 2
     6     3    10 1
     7     4     5 1
     8     4    11 1
     9     5     6 1
    10     6     7 1
    11     6     8 2
    12     7    12 1
    13     7    13 1
    14     8    14 1
    15    15     7 1
@<TRIPOS>SUBSTRUCTURE
     1 TP5         1 TEMP              0 ****  ****    0 ROOT
