@<TRIPOS>MOLECULE
TP5
   15    15     1     0     0
SMALL
bcc


@<TRIPOS>ATOM
      1 C4           0.0000     0.0000     0.0000 cc         1 TP5      -0.001100
      2 S1           1.7330     0.0000     0.0000 ss         1 TP5      -0.137800
      3 C5           2.0070     0.0000     1.7620 cc         1 TP5       0.107900
      4 C3           0.7470     0.0060     2.2500 cd         1 TP5      -0.151000
      5 C1          -0.3040     0.0010     1.3340 cd         1 TP5      -0.259900
      6 C2          -1.7080     0.0020     1.7910 cf         1 TP5       0.216800
      7 N2          -2.7330     0.0020     0.8690 nz         1 TP5       0.193400
      8 N1          -1.9790     0.0020     3.0670 n2         1 TP5      -0.483100
      9 HC4         -0.6750    -0.0020    -0.8470 h4         1 TP5       0.156000
     10 HC5          2.9450     0.0010     2.3040 h4         1 TP5       0.185000
     11 HC3          0.5600     0.0070     3.3170 ha         1 TP5       0.129000
     12 HN21        -2.6660     0.8190     0.2950 hn         1 TP5       0.220800
     13 HN22        -3.6120     0.0030     1.3480 hn         1 TP5       0.220800
     14 HN1         -1.2360     0.0020     3.7380 hn         1 TP5       0.382400
     15 H23         -2.6670    -0.8160     0.2960 hn         1 TP5       0.220800
@<TRIPOS>BOND
     1     1     2 1   
     2     1     5 2   
     3     1     9 1   
     4     2     3 1   
     5     3     4 2   
     6     3    10 1   
     7     4     5 1   
     8     4    11 1   
     9     5     6 1   
    10     6     7 1   
    11     6     8 2   
    12     7    12 1   
    13     7    13 1   
    14     7    15 1   
    15     8    14 1   
@<TRIPOS>SUBSTRUCTURE
     1 TP5         1 TEMP              0 ****  ****    0 ROOT
