@<TRIPOS>MOLECULE
TP6
   54    55     1     0     0
SMALL
bcc


@<TRIPOS>ATOM
      1 O2P         6.7370    3.4570   -6.2640 o         1 TP6     -0.935167
      2 P           6.0900    4.6500   -5.5980 p5        1 TP6      1.352900
      3 O3P         6.8340    5.3650   -4.5190 o         1 TP6     -0.935167
      4 O1P         5.3880    5.4880   -6.6560 o         1 TP6     -0.935167
      5 O27         4.7550    3.9660   -4.7680 os        1 TP6     -0.565200
      6 C19         3.7970    3.5010   -5.6410 c3        1 TP6      0.214400
      7 C18         2.7970    2.6040   -4.9100 c3        1 TP6     -0.099400
      8 C17         1.5910    2.2920   -5.7740 c3        1 TP6     -0.082400
      9 C16         0.5370    3.3790   -5.7000 c3        1 TP6     -0.109400
     10 C15        -0.3930    3.3810   -6.9150 c3        1 TP6      0.051000
     11 N5         -0.0240    4.2250   -8.0400 n         1 TP6     -0.250000
     12 C9         -0.0380    5.6410   -7.8300 cc        1 TP6     -0.314600
     13 C4         -1.0930    6.4590   -7.2810 c         1 TP6      0.765700
     14 O2         -2.1810    6.0790   -6.8050 o         1 TP6     -0.663500
     15 N3         -0.8280    7.8480   -7.3090 n         1 TP6     -0.592500
     16 C6          1.2840    3.9680   -8.6470 c         1 TP6      0.752500
     17 O4          1.6600    2.8750   -9.0870 o         1 TP6     -0.585500
     18 N7          1.9950    5.2230   -8.8670 n         1 TP6     -0.309000
     19 C8          1.1580    6.2190   -8.3250 cd        1 TP6      0.206200
     20 N1          1.3700    7.5820   -8.3110 n         1 TP6     -0.423100
     21 C2          0.3580    8.4180   -7.8020 c         1 TP6      0.815500
     22 O1          0.5060    9.6630   -7.8080 o         1 TP6     -0.671500
     23 C10         3.4390    5.2910   -8.7400 c3        1 TP6     -0.007000
     24 C11         4.1550    5.9640   -9.9200 c3        1 TP6      0.124100
     25 O19         3.6890    7.3040  -10.0770 oh        1 TP6     -0.651800
     26 C12         5.6760    5.9720   -9.6520 c3        1 TP6      0.076100
     27 O21         6.2280    7.0760  -10.3590 oh        1 TP6     -0.617800
     28 C13         6.4130    4.6870  -10.0400 c3        1 TP6      0.096100
     29 O23         6.0940    4.3890  -11.4020 oh        1 TP6     -0.654800
     30 C14         6.1000    3.5260   -9.0920 c3        1 TP6      0.075400
     31 O26         7.2420    2.7070   -8.9640 oh        1 TP6     -0.674800
     32 H191        4.2850    2.9280   -6.4820 h1        1 TP6     -0.009800
     33 H192        3.2410    4.3700   -6.1020 h1        1 TP6     -0.009800
     34 H181        2.4790    3.1050   -3.9600 hc        1 TP6      0.031200
     35 H182        3.3120    1.6500   -4.6270 hc        1 TP6      0.031200
     36 H171        1.9280    2.1600   -6.8370 hc        1 TP6      0.029200
     37 H172        1.1320    1.3200   -5.4530 hc        1 TP6      0.029200
     38 H161       -0.0900    3.2250   -4.7820 hc        1 TP6      0.051700
     39 H162        1.0360    4.3790   -5.5880 hc        1 TP6      0.051700
     40 H151       -0.4740    2.3350   -7.3260 h1        1 TP6      0.063700
     41 H152       -1.4170    3.7320   -6.5950 h1        1 TP6      0.063700
     42 H3         -1.4970    8.4750   -6.9220 hn        1 TP6      0.337500
     43 H1          2.2220    7.9790   -8.6600 hn        1 TP6      0.390500
     44 H101        3.8160    4.2290   -8.6540 h1        1 TP6      0.149700
     45 H102        3.7510    5.8130   -7.7710 h1        1 TP6      0.149700
     46 H11         3.9210    5.4560  -10.8950 h1        1 TP6      0.064700
     47 HA          4.3400    7.8890   -9.6630 ho        1 TP6      0.419000
     48 H12         5.8710    6.1830   -8.5440 h1        1 TP6      0.202700
     49 H21         6.1460    6.8710  -11.2980 ho        1 TP6      0.390000
     50 H13         7.5210    4.9060   -9.9960 h1        1 TP6      0.053700
     51 H23         6.2620    3.4470  -11.5170 ho        1 TP6      0.403000
     52 H141        5.8030    3.9340   -8.0660 h1        1 TP6      0.087700
     53 H142        5.2820    2.8910   -9.5300 h1        1 TP6      0.087700
     54 H26         7.4700    2.7200   -8.0110 ho        1 TP6      0.481000
@<TRIPOS>BOND
     1    1    2 1
     2    2    3 1
     3    2    4 1
     4    2    5 1
     5    5    6 1
     6    6    7 1
     7    6   32 1
     8    6   33 1
     9    7    8 1
    10    7   34 1
    11    7   35 1
    12    8    9 1
    13    8   36 1
    14    8   37 1
    15    9   10 1
    16    9   38 1
    17    9   39 1
    18   10   11 1
    19   10   40 1
    20   10   41 1
    21   11   12 1
    22   11   16 1
    23   12   13 1
    24   12   19 2
    25   13   14 2
    26   13   15 1
    27   15   21 1
    28   15   42 1
    29   16   17 2
    30   16   18 1
    31   18   19 1
    32   18   23 1
    33   19   20 1
    34   20   21 1
    35   20   43 1
    36   21   22 2
    37   23   24 1
    38   23   44 1
    39   23   45 1
    40   24   25 1
    41   24   26 1
    42   24   46 1
    43   25   47 1
    44   26   27 1
    45   26   28 1
    46   26   48 1
    47   27   49 1
    48   28   29 1
    49   28   30 1
    50   28   50 1
    51   29   51 1
    52   30   31 1
    53   30   52 1
    54   30   53 1
    55   31   54 1
@<TRIPOS>SUBSTRUCTURE
     1 TP6         1 TEMP              0 ****  ****    0 ROOT
