@<TRIPOS>MOLECULE
molecule
   40    39     1     0     0
SMALL
bcc


@<TRIPOS>ATOM
      1 N            0.0000     0.0000     0.0000 ns         1 TP7      -0.494900
      2 P            2.6650     3.4590     0.6130 p5         1 TP7       1.202900
      3 O1P          3.5440     3.9410    -0.4750 o          1 TP7      -0.863833
      4 O2P          3.5570     2.7310     1.7390 o          1 TP7      -0.863833
      5 O3P          1.8880     4.7070     1.2680 o          1 TP7      -0.863833
      6 O4P          1.5970     2.4130     0.0170 os         1 TP7      -0.576200
      7 CB           1.9740     1.2490    -0.7210 c3         1 TP7       0.233100
      8 C            1.9680     0.0000     1.4200 c          1 TP7       0.907600
      9 OXT          3.2880     0.0000     1.6650 o          1 TP7      -0.835300
     10 O            1.1830    -0.0000     2.3390 o          1 TP7      -0.835300
     11 CA           1.4650     0.0000     0.0000 c3         1 TP7      -0.013300
     12 CG           1.3640     1.3150    -2.1220 c3         1 TP7      -0.113100
     13 O1          -0.0670    -2.2090     0.1930 o          1 TP7      -0.675100
     14 C1          -0.6740    -1.1630     0.1020 c          1 TP7       0.641100
     15 C2          -2.1810    -1.1640     0.1020 c3         1 TP7      -0.162400
     16 C3          -2.6900    -2.6010     0.2290 c3         1 TP7      -0.062400
     17 C4          -4.2210    -2.6010     0.2300 c3         1 TP7      -0.086400
     18 C5          -4.7300    -4.0390     0.3550 c3         1 TP7      -0.080400
     19 C6          -6.2590    -4.0380     0.3560 c3         1 TP7      -0.065400
     20 C7          -6.7690    -5.4760     0.4810 c3         1 TP7       0.040700
     21 S7          -8.5830    -5.4760     0.4820 sh         1 TP7      -0.537900
     22 H           -0.5000     0.8660    -0.0340 hn         1 TP7       0.317500
     23 HA           1.8260    -0.8840    -0.5110 h1         1 TP7       0.035700
     24 HB           3.0540     1.2060    -0.7990 h1         1 TP7       0.067700
     25 HG1C         0.4620     1.9150    -2.0960 hc         1 TP7       0.006033
     26 HG2C         1.1210     0.3130    -2.4580 hc         1 TP7       0.006033
     27 HG3C         2.0750     1.7620    -2.8060 hc         1 TP7       0.006033
     28 H21C        -2.5420    -0.7320    -0.8230 hc         1 TP7       0.042200
     29 H22C        -2.5420    -0.5780     0.9390 hc         1 TP7       0.042200
     30 H31C        -2.3290    -3.1860    -0.6080 hc         1 TP7       0.052200
     31 H32C        -2.3280    -3.0320     1.1540 hc         1 TP7       0.052200
     32 H41C        -4.5810    -2.0160     1.0670 hc         1 TP7       0.033200
     33 H42C        -4.5830    -2.1690    -0.6950 hc         1 TP7       0.033200
     34 H51C        -4.3680    -4.4710     1.2800 hc         1 TP7       0.038200
     35 H52C        -4.3690    -4.6240    -0.4820 hc         1 TP7       0.038200
     36 H61C        -6.6210    -3.6060    -0.5690 hc         1 TP7       0.047200
     37 H62C        -6.6200    -3.4530     1.1930 hc         1 TP7       0.047200
     38 H71C        -6.4070    -5.9080     1.4060 h1         1 TP7       0.041200
     39 H72C        -6.4080    -6.0610    -0.3560 h1         1 TP7       0.041200
     40 H7          -9.0250    -6.7230     0.5890 hs         1 TP7       0.160800
@<TRIPOS>BOND
     1     1    11 1
     2     1    14 1
     3     2     3 1
     4     2     4 1
     5     2     5 1
     6     2     6 1
     7     6     7 1
     8     7    11 1
     9     7    12 1
    10     8     9 1
    11     8    10 1
    12     8    11 1
    13    13    14 2
    14    14    15 1
    15    15    16 1
    16    16    17 1
    17    17    18 1
    18    18    19 1
    19    19    20 1
    20    20    21 1
    21     1    22 1
    22    11    23 1
    23     7    24 1
    24    12    25 1
    25    12    26 1
    26    12    27 1
    27    15    28 1
    28    15    29 1
    29    16    30 1
    30    16    31 1
    31    17    32 1
    32    17    33 1
    33    18    34 1
    34    18    35 1
    35    19    36 1
    36    19    37 1
    37    20    38 1
    38    20    39 1
    39    21    40 1
@<TRIPOS>SUBSTRUCTURE
     1 TP7         1 TEMP              0 ****  ****    0 ROOT
