@<TRIPOS>MOLECULE
TP7
   43    42     1     0     0
SMALL
bcc


@<TRIPOS>ATOM
      1 N           0.1740    0.2330    0.6380 n3        1 TP7     -0.858200
      2 P           1.2020    2.6320   -2.0680 p5        1 TP7      1.433800
      3 O1P        -0.2610    2.5600   -1.3340 oh        1 TP7     -0.788400
      4 O2P         1.9630    3.6010   -1.2430 o         1 TP7     -0.854000
      5 O3P         0.9980    2.7540   -3.5270 o         1 TP7     -0.854000
      6 O4P         1.7580    1.1190   -1.7670 os        1 TP7     -0.592200
      7 CB          2.2840    0.8340   -0.4950 c3        1 TP7      0.213100
      8 C           2.2350   -1.0520    1.2720 c         1 TP7      0.891600
      9 O           2.0950   -0.6880    2.4780 o         1 TP7     -0.859300
     10 OXT         2.9470   -2.0400    0.9300 o         1 TP7     -0.859300
     11 CA          1.4410   -0.3040    0.1550 c3        1 TP7      0.045500
     12 CG          3.7260    0.3690   -0.6480 c3        1 TP7     -0.093100
     13 O1         -2.0930    0.3860   -0.0220 oh        1 TP7     -0.669800
     14 C1         -1.0130   -0.5140    0.2750 c3        1 TP7      0.399300
     15 C2         -1.5620   -1.4560    1.3700 c3        1 TP7     -0.107400
     16 C3         -2.6140   -2.3790    0.8010 c3        1 TP7     -0.073400
     17 C4         -3.2190   -3.2590    1.8750 c3        1 TP7     -0.078400
     18 C5         -4.2400   -4.2100    1.2860 c3        1 TP7     -0.077400
     19 C6         -4.8810   -5.0690    2.3580 c3        1 TP7     -0.074400
     20 C7         -5.8680   -6.0300    1.7470 c3        1 TP7      0.022700
     21 S7         -6.6300   -6.9450    3.0660 sh        1 TP7     -0.401900
     22 HN          0.2260    0.3850    1.6300 hn        1 TP7      0.383800
     23 HB          2.2530    1.7670    0.1380 h1        1 TP7      0.049700
     24 HA          1.2590   -1.0560   -0.6680 h1        1 TP7      0.051700
     25 HG1         4.3140    1.1200   -1.2260 hc        1 TP7      0.028367
     26 HG2         4.1820    0.2340    0.3620 hc        1 TP7      0.028367
     27 HG3         3.7570   -0.6100   -1.1820 hc        1 TP7      0.028367
     28 HO1        -1.7370    1.1020   -0.5720 ho        1 TP7      0.445000
     29 H1         -0.8170   -1.1190   -0.6630 h2        1 TP7      0.036700
     30 H21        -2.0020   -0.8400    2.1960 hc        1 TP7      0.053700
     31 H22        -0.7100   -2.0490    1.7930 hc        1 TP7      0.053700
     32 H31        -3.4160   -1.7640    0.3130 hc        1 TP7      0.041700
     33 H32        -2.1560   -3.0230    0.0040 hc        1 TP7      0.041700
     34 H41        -2.4080   -3.8420    2.3850 hc        1 TP7      0.038700
     35 H42        -3.7070   -2.6170    2.6550 hc        1 TP7      0.038700
     36 H51        -3.7420   -4.8680    0.5260 hc        1 TP7      0.037700
     37 H52        -5.0330   -3.6240    0.7500 hc        1 TP7      0.037700
     38 H61        -4.0860   -5.6370    2.9100 hc        1 TP7      0.055200
     39 H62        -5.4010   -4.4110    3.1050 hc        1 TP7      0.055200
     40 H71        -5.3490   -6.7280    1.0470 h1        1 TP7      0.056700
     41 H72        -6.6460   -5.4760    1.1700 h1        1 TP7      0.056700
     42 HS7        -7.4020   -7.7360    2.3460 hs        1 TP7      0.185800
     43 H2         -0.1800    2.6420   -0.3900 ho        1 TP7      0.428000
@<TRIPOS>BOND
     1    1   11 1   
     2    1   14 1   
     3    1   22 1   
     4    2    3 1   
     5    2    4 1   
     6    2    5 1   
     7    2    6 1   
     8    3   43 1   
     9    6    7 1   
    10    7   11 1   
    11    7   12 1   
    12    7   23 1   
    13    8    9 1   
    14    8   10 1   
    15    8   11 1   
    16   11   24 1   
    17   12   25 1   
    18   12   26 1   
    19   12   27 1   
    20   13   14 1   
    21   13   28 1   
    22   14   15 1   
    23   14   29 1   
    24   15   16 1   
    25   15   30 1   
    26   15   31 1   
    27   16   17 1   
    28   16   32 1   
    29   16   33 1   
    30   17   18 1   
    31   17   34 1   
    32   17   35 1   
    33   18   19 1   
    34   18   36 1   
    35   18   37 1   
    36   19   20 1   
    37   19   38 1   
    38   19   39 1   
    39   20   21 1   
    40   20   40 1   
    41   20   41 1   
    42   21   42 1   
@<TRIPOS>SUBSTRUCTURE
     1 TP7         1 TEMP              0 ****  ****    0 ROOT
