@<TRIPOS>MOLECULE
molecule
   54    55     1     0     0
SMALL
bcc


@<TRIPOS>ATOM
      1 C8           0.0000     0.0000     0.0000 ce         1 TP8      -0.046100
      2 C5           3.5860     0.0000     1.3740 cc         1 TP8      -0.001400
      3 C4           3.6220     0.0000     0.0000 cd         1 TP8       0.023400
      4 N3           2.3630    -0.0000    -0.5480 na         1 TP8      -0.126100
      5 C2           1.3710    -0.0010     0.3100 cc         1 TP8       0.098800
      6 C6           4.6920     0.0020     2.3520 c3         1 TP8      -0.008100
      7 O3C         -3.5460     3.1660    -3.5800 o          1 TP8      -0.915167
      8 PC          -3.7460     2.3720    -2.3070 p5         1 TP8       1.220900
      9 O1C         -4.6440     2.8990    -1.2090 o          1 TP8      -0.915167
     10 O2C         -4.2260     0.8580    -2.6890 o          1 TP8      -0.915167
     11 O10         -2.2650     2.0440    -1.7040 os         1 TP8      -0.560200
     12 C10         -2.1540     1.3160    -0.4860 c3         1 TP8       0.233600
     13 C9          -0.7040     1.1540    -0.1590 c2         1 TP8      -0.068200
     14 O8          -0.5690    -1.2590    -0.1400 oh         1 TP8      -0.496100
     15 C7,          2.1450     0.0000    -1.9880 c3         1 TP8       0.395300
     16 C5,          2.0630    -1.4210    -2.5300 c3         1 TP8      -0.492300
     17 C4,          1.9270    -1.3990    -4.0280 ce         1 TP8       0.900300
     18 N4,          2.9400    -1.1920    -4.8040 n2         1 TP8      -1.126100
     19 N3,          0.6870    -1.5740    -4.5790 ne         1 TP8      -0.796000
     20 C2,         -0.2700    -2.0430    -3.8390 cf         1 TP8       0.734300
     21 CM2         -1.6310    -2.2400    -4.4430 c3         1 TP8      -0.128400
     22 N1,         -0.1810    -2.4070    -2.5160 nf         1 TP8      -0.692000
     23 C6,          0.9110    -2.1280    -1.8860 c2         1 TP8       0.552200
     24 CM4          4.7840     0.0010    -0.9010 c3         1 TP8      -0.040800
     25 S1           1.9540    -0.0000     1.9180 ss         1 TP8      -0.017800
     26 C7           5.1560    -1.4040     2.7610 c3         1 TP8       0.214400
     27 O7           5.6380    -2.0960     1.6150 os         1 TP8      -0.585200
     28 PA           6.1930    -3.6230     1.7860 p5         1 TP8       1.442800
     29 O1A          6.6380    -4.1170     0.4270 o          1 TP8      -0.862500
     30 O2A          7.1280    -3.6900     2.9750 o          1 TP8      -0.862500
     31 O3A          4.7990    -4.3790     2.1800 os         1 TP8      -0.713800
     32 PB           3.3950    -4.5210     1.3600 p5         1 TP8       1.331900
     33 O2B          2.7460    -3.1580     1.2550 o          1 TP8      -0.824833
     34 O3B          3.6240    -5.3680     0.1270 o          1 TP8      -0.824833
     35 O1B          2.5630    -5.4080     2.4490 o          1 TP8      -0.824833
     36 HO8         -1.0650    -1.4680     0.6350 ho         1 TP8       0.410000
     37 H9          -0.1550     2.0790    -0.0340 ha         1 TP8       0.135000
     38 H101        -2.6130     0.3420    -0.6020 h1         1 TP8       0.037700
     39 H102        -2.6490     1.8600     0.3090 h1         1 TP8       0.037700
     40 H61          5.5330     0.5320     1.9220 hc         1 TP8       0.026200
     41 H62          4.3680     0.5300     3.2410 hc         1 TP8       0.026200
     42 H71          5.9500    -1.3230     3.4940 h1         1 TP8       0.034700
     43 H72          4.3230    -1.9490     3.1880 h1         1 TP8       0.034700
     44 HM41         4.7860    -0.9080    -1.4900 hc         1 TP8       0.064367
     45 HM42         5.6950     0.0540    -0.3170 hc         1 TP8       0.064367
     46 HM43         4.7290     0.8590    -1.5610 hc         1 TP8       0.064367
     47 H7,1         1.2190     0.5180    -2.2060 h1         1 TP8      -0.112300
     48 H7,2         2.9640     0.5180    -2.4710 h1         1 TP8      -0.112300
     49 H5,          2.9750    -1.9470    -2.2750 hc         1 TP8       0.177700
     50 H6,          0.9990    -2.4220    -0.8470 h4         1 TP8       0.113800
     51 H4,          3.1850    -0.2590    -5.0690 hn         1 TP8       0.491400
     52 HM21        -1.5950    -3.0560    -5.1550 hc         1 TP8       0.068033
     53 HM22        -2.3430    -2.4750    -3.6610 hc         1 TP8       0.068033
     54 HM23        -1.9370    -1.3330    -4.9490 hc         1 TP8       0.068033
@<TRIPOS>BOND
     1     1    14 1
     2     1    13 2
     3     1     5 1
     4     2     3 2
     5     2    25 1
     6     2     6 1
     7     3     4 1
     8     3    24 1
     9     4     5 2
    10     4    15 1
    11     5    25 1
    12     6    40 1
    13     6    41 1
    14     6    26 1
    15     7     8 1
    16     8    11 1
    17     8     9 1
    18     8    10 1
    19    11    12 1
    20    12    13 1
    21    12    38 1
    22    12    39 1
    23    13    37 1
    24    14    36 1
    25    15    47 1
    26    15    48 1
    27    15    16 1
    28    16    49 1
    29    16    23 1
    30    16    17 1
    31    17    19 1
    32    17    18 2
    33    18    51 1
    34    19    20 2
    35    20    22 1
    36    20    21 1
    37    21    52 1
    38    21    53 1
    39    21    54 1
    40    22    23 2
    41    23    50 1
    42    24    44 1
    43    24    45 1
    44    24    46 1
    45    26    42 1
    46    26    43 1
    47    26    27 1
    48    27    28 1
    49    28    29 1
    50    28    30 1
    51    28    31 1
    52    31    32 1
    53    32    33 1
    54    32    34 1
    55    32    35 1
@<TRIPOS>SUBSTRUCTURE
     1 TP8         1 TEMP              0 ****  ****    0 ROOT
