@<TRIPOS>MOLECULE
TP9
   42    42     1     0     0
SMALL
bcc


@<TRIPOS>ATOM
      1 N1'        -1.7560    1.4850    0.2260 n2        1 TP9     -0.596200
      2 C2'        -1.5560    0.7960   -0.9580 cc        1 TP9      0.548200
      3 CM2        -2.4460    1.2260   -2.1100 c3        1 TP9     -0.097400
      4 N3'        -0.6860   -0.1890   -1.2040 nd        1 TP9     -0.785000
      5 C4'         0.1530   -0.6160   -0.1370 cd        1 TP9      0.718600
      6 N4'         0.9820   -1.6150   -0.3560 n2        1 TP9     -0.930100
      7 C5'         0.0190    0.1080    1.1410 cd        1 TP9     -0.478800
      8 C6'        -0.9460    1.0990    1.2360 cc        1 TP9      0.096000
      9 C7'         0.9110   -0.1700    2.3010 c3        1 TP9      0.283000
     10 N3          0.4650   -1.2720    3.1290 nh        1 TP9     -0.755000
     11 S1         -0.2250   -3.9030    4.4830 sh        1 TP9     -0.372400
     12 C5          0.8380   -2.6830    5.0500 c2        1 TP9     -0.101600
     13 C4          1.1330   -1.5620    4.3260 c2        1 TP9      0.119800
     14 CM4         2.0930   -0.5460    4.8680 c3        1 TP9     -0.070900
     15 C6          1.3830   -2.9680    6.4000 c3        1 TP9     -0.053200
     16 C7          2.8550   -3.4120    6.4220 c3        1 TP9      0.202400
     17 O7          3.4760   -2.9440    7.5720 os        1 TP9     -0.591200
     18 PA          3.9660   -4.0820    8.6940 p5        1 TP9      1.598800
     19 O1A         2.9020   -4.1420    9.7150 o         1 TP9     -0.889000
     20 O2A         4.3730   -5.2630    7.9000 o         1 TP9     -0.889000
     21 O3A         5.2970   -3.3590    9.2750 os        1 TP9     -0.826800
     22 PB          6.6190   -2.6930    9.9810 p5        1 TP9      1.595800
     23 O1B         7.6080   -2.9210    8.6890 oh        1 TP9     -0.808400
     24 O2B         6.4770   -1.2390   10.1960 o         1 TP9     -0.889500
     25 O3B         7.1120   -3.5890   11.0500 o         1 TP9     -0.889500
     26 H71         2.9250   -4.5340    6.3600 h1        1 TP9      0.021700
     27 H72         3.3840   -2.9720    5.5280 h1        1 TP9      0.021700
     28 H61         1.2810   -2.0540    7.0480 hc        1 TP9      0.052700
     29 H62         0.7650   -3.7720    6.8850 hc        1 TP9      0.052700
     30 HS1        -1.2510   -3.1740    4.0770 hs        1 TP9      0.165800
     31 HN3         0.1900   -2.0800    2.6060 hn        1 TP9      0.405800
     32 H7'1        1.9680   -0.3450    1.9350 h1        1 TP9      0.016700
     33 H7'2        0.9480    0.7480    2.9600 h1        1 TP9      0.016700
     34 H6'        -1.0940    1.6450    2.1860 h4        1 TP9      0.109000
     35 H4'1        1.5180   -1.8380    0.4570 hn        1 TP9      0.342400
     36 H4'2        7.3210   -3.6220    8.1180 ho        1 TP9      0.423000
     37 HM21       -3.5170    1.0750   -1.8310 hc        1 TP9      0.023033
     38 HM22       -2.2320    0.6410   -3.0360 hc        1 TP9      0.023033
     39 HM23       -2.2810    2.3090   -2.3260 hc        1 TP9      0.023033
     40 HM41        2.6320   -0.9410    5.7670 hc        1 TP9      0.055700
     41 HM42        2.8570   -0.2800    4.0960 hc        1 TP9      0.055700
     42 HM43        1.5430    0.3830    5.1610 hc        1 TP9      0.055700
@<TRIPOS>BOND
     1    1    2 1   
     2    1    8 1   
     3    2    3 1   
     4    2    4 2   
     5    3   37 1   
     6    3   38 1   
     7    3   39 1   
     8    4    5 1   
     9    5    6 2   
    10    5    7 1   
    11    6   35 1   
    12    7    8 2   
    13    7    9 1   
    14    8   34 1   
    15    9   10 1   
    16    9   32 1   
    17    9   33 1   
    18   10   13 1   
    19   10   31 1   
    20   11   12 1   
    21   11   30 1   
    22   12   13 2   
    23   12   15 1   
    24   13   14 1   
    25   14   40 1   
    26   14   41 1   
    27   14   42 1   
    28   15   16 1   
    29   15   28 1   
    30   15   29 1   
    31   16   17 1   
    32   16   26 1   
    33   16   27 1   
    34   17   18 1   
    35   18   19 1   
    36   18   20 1   
    37   18   21 1   
    38   21   22 1   
    39   22   23 1   
    40   22   24 1   
    41   22   25 1   
    42   23   36 1   
@<TRIPOS>SUBSTRUCTURE
     1 TP9         1 TEMP              0 ****  ****    0 ROOT
