@<TRIPOS>MOLECULE
molecule
   42    42     1     0     0
SMALL
bcc


@<TRIPOS>ATOM
      1 N1'          0.0000     0.0000     0.0000 nb         1 TP9      -0.785000
      2 C2'          1.3470     0.0000     0.0000 ca         1 TP9       0.640300
      3 CM2          2.0120    -0.0030    -1.3340 c3         1 TP9      -0.124400
      4 N3'          2.1560     0.0000     1.0760 nb         1 TP9      -0.707000
      5 C4'          1.5200     0.0020     2.2670 ca         1 TP9       0.738200
      6 N4'          2.3110     0.0020     3.4430 nv         1 TP9      -0.989500
      7 C5'          0.1540     0.0020     2.3880 ca         1 TP9      -0.420900
      8 C6'         -0.5690     0.0010     1.2240 ca         1 TP9       0.427200
      9 C7'         -0.5480     0.0030     3.7160 c3         1 TP9       0.317100
     10 N3          -0.7990    -1.3260     4.1900 nu         1 TP9      -0.823000
     11 S1          -0.0920    -4.2610     4.4080 sh         1 TP9      -0.339400
     12 C5           0.0680    -3.0320     5.6600 c2         1 TP9      -0.055600
     13 C4          -0.2700    -1.7460     5.3860 c2         1 TP9       0.184800
     14 CM4         -0.1130    -0.6280     6.3910 c3         1 TP9      -0.058900
     15 C6           0.6370    -3.5060     6.9880 c3         1 TP9      -0.016200
     16 C7           2.1640    -3.5170     7.0120 c3         1 TP9       0.212400
     17 O7           2.6870    -2.2080     6.8310 os         1 TP9      -0.594200
     18 PA           4.3060    -1.9940     6.8240 p5         1 TP9       1.426800
     19 O1A          4.5880    -0.5220     6.6150 o          1 TP9      -0.869000
     20 O2A          4.9190    -2.7380     7.9930 o          1 TP9      -0.869000
     21 O3A          4.6820    -2.7920     5.4490 os         1 TP9      -0.711800
     22 PB           6.1240    -3.0460     4.7240 p5         1 TP9       1.314900
     23 O1B          5.6030    -3.9090     3.4390 o          1 TP9      -0.934167
     24 O2B          6.6630    -1.7240     4.2260 o          1 TP9      -0.934167
     25 O3B          6.9660    -3.9490     5.5970 o          1 TP9      -0.934167
     26 H71          2.5270    -4.1580     6.2190 h1         1 TP9       0.040700
     27 H72          2.5010    -3.9050     7.9660 h1         1 TP9       0.040700
     28 H61          0.2810    -2.8500     7.7730 hc         1 TP9       0.007700
     29 H62          0.2780    -4.5090     7.1820 hc         1 TP9       0.007700
     30 HS1         -1.0830    -5.0870     4.7220 hs         1 TP9       0.113800
     31 HN3         -1.3790    -1.9440     3.6570 hn         1 TP9       0.425800
     32 H7'1         0.0680     0.5240     4.4390 h1         1 TP9       0.027200
     33 H7'2        -1.4920     0.5250     3.6150 h1         1 TP9       0.027200
     34 H6'         -1.6510     0.0010     1.2890 h4         1 TP9      -0.018900
     35 H4'1         2.0640     0.5940     4.2100 hn         1 TP9       0.478300
     36 H4'2         3.1470    -0.5460     3.4820 hn         1 TP9       0.478300
     37 HM21         2.8900     0.6310    -1.3010 hc         1 TP9       0.043033
     38 HM22         2.3070    -1.0140    -1.5890 hc         1 TP9       0.043033
     39 HM23         1.3240     0.3720    -2.0820 hc         1 TP9       0.043033
     40 HM41        -0.8770     0.1210     6.2200 hc         1 TP9       0.047700
     41 HM42         0.8660    -0.1780     6.2800 hc         1 TP9       0.047700
     42 HM43        -0.2160    -1.0260     7.3930 hc         1 TP9       0.047700
@<TRIPOS>BOND
     1     1     8 ar
     2     1     2 ar
     3     2     4 ar
     4     2     3 1
     5     3    37 1
     6     3    38 1
     7     3    39 1
     8     4     5 ar
     9     5     7 ar
    10     5     6 1
    11     6    35 1
    12     6    36 1
    13     7     9 1
    14     7     8 ar
    15     8    34 1
    16     9    10 1
    17     9    32 1
    18     9    33 1
    19    10    13 1
    20    10    31 1
    21    11    12 1
    22    11    30 1
    23    12    15 1
    24    12    13 2
    25    13    14 1
    26    14    40 1
    27    14    41 1
    28    14    42 1
    29    15    16 1
    30    15    28 1
    31    15    29 1
    32    16    17 1
    33    16    26 1
    34    16    27 1
    35    17    18 1
    36    18    21 1
    37    18    19 1
    38    18    20 1
    39    21    22 1
    40    22    23 1
    41    22    24 1
    42    22    25 1
@<TRIPOS>SUBSTRUCTURE
     1 TP9         1 TEMP              0 ****  ****    0 ROOT
