@<TRIPOS>MOLECULE
molecule
   22    23     1     0     0
SMALL
bcc


@<TRIPOS>ATOM
      1 C1           0.0000     0.0000     0.0000 cx         1 TPA      -0.045500
      2 C2           1.5310     0.0000     0.0000 cx         1 TPA      -0.014400
      3 C3           0.7640     0.0000     1.3250 cx         1 TPA      -0.093400
      4 C1'          2.2270     1.2750    -0.4010 ca         1 TPA      -0.107300
      5 C2'          3.0760     1.2850    -1.4910 ca         1 TPA      -0.111500
      6 C3'          3.7160     2.4540    -1.8580 ca         1 TPA      -0.111500
      7 C4'          3.5050     3.6140    -1.1360 ca         1 TPA      -0.092000
      8 C5'          2.6530     3.6040    -0.0470 ca         1 TPA      -0.111500
      9 C6'          2.0110     2.4350     0.3180 ca         1 TPA      -0.111500
     10 N           -0.6780    -1.2420    -0.3910 nz         1 TPA      -0.772600
     11 H1          -0.4530     0.9480    -0.2620 hx         1 TPA       0.165700
     12 H2           1.9840    -0.9490    -0.2610 hc         1 TPA       0.097700
     13 H31          0.7640     0.9390     1.8650 hc         1 TPA       0.112700
     14 H32          0.7640    -0.9390     1.8650 hc         1 TPA       0.112700
     15 H2'          3.2420     0.3760    -2.0560 ha         1 TPA       0.129500
     16 H3'          4.3830     2.4620    -2.7120 ha         1 TPA       0.151500
     17 H4'          4.0070     4.5300    -1.4230 ha         1 TPA       0.153000
     18 H5'          2.4850     4.5130     0.5180 ha         1 TPA       0.151500
     19 H6'          1.3440     2.4280     1.1710 ha         1 TPA       0.129500
     20 HN1         -1.6000    -1.2560    -0.0020 hn         1 TPA       0.456133
     21 HN2         -0.1600    -2.0270    -0.0500 hn         1 TPA       0.456133
     22 HN3         -0.7370    -1.2900    -1.3890 hn         1 TPA       0.456133
@<TRIPOS>BOND
     1     1     2 1
     2     1     3 1
     3     1    10 1
     4     1    11 1
     5     2     3 1
     6     2     4 1
     7     2    12 1
     8     3    13 1
     9     3    14 1
    10     4     5 ar
    11     4     9 ar
    12     5     6 ar
    13     5    15 1
    14     6     7 ar
    15     6    16 1
    16     7     8 ar
    17     7    17 1
    18     8     9 ar
    19     8    18 1
    20     9    19 1
    21    10    20 1
    22    10    21 1
    23    10    22 1
@<TRIPOS>SUBSTRUCTURE
     1 TPA         1 TEMP              0 ****  ****    0 ROOT
