@<TRIPOS>MOLECULE
molecule
   44    46     1     0     0
SMALL
bcc


@<TRIPOS>ATOM
      1 C1           0.0000     0.0000     0.0000 ca         1 TPB       0.027600
      2 N7          -0.7000     0.0000    -1.2100 nu         1 TPB      -0.681300
      3 C2           1.3880     0.0000     0.0000 ca         1 TPB      -0.047300
      4 C21          2.1430    -0.0000    -1.3040 c3         1 TPB      -0.061800
      5 C3           2.0770     0.0000     1.1980 ca         1 TPB      -0.142500
      6 C4           1.3860     0.0000     2.3940 ca         1 TPB      -0.054300
      7 C5           0.0030    -0.0050     2.3970 ca         1 TPB      -0.142500
      8 C6          -0.6920     0.0000     1.2040 ca         1 TPB      -0.047300
      9 C61         -2.1980     0.0010     1.2080 c3         1 TPB      -0.061800
     10 C8          -1.5680    -1.0390    -1.5090 ca         1 TPB       0.702200
     11 N1          -2.2430    -1.0460    -2.6540 nb         1 TPB      -0.782000
     12 C9          -3.0670    -2.0400    -2.9450 ca         1 TPB       0.906900
     13 N5          -3.7500    -2.0200    -4.1490 nu         1 TPB      -0.798300
     14 N3          -3.2580    -3.0500    -2.1100 nb         1 TPB      -0.880000
     15 C10         -2.6230    -3.1040    -0.9490 ca         1 TPB       0.532200
     16 C7          -1.7500    -2.0910    -0.6090 ca         1 TPB      -0.569600
     17 C11         -4.5380    -3.1090    -4.5220 ca         1 TPB       0.087600
     18 C12         -4.1550    -4.3960    -4.1630 ca         1 TPB      -0.149000
     19 C13         -4.9300    -5.4730    -4.5300 ca         1 TPB      -0.076000
     20 C14         -6.1030    -5.2710    -5.2640 ca         1 TPB      -0.011000
     21 C15         -6.4840    -3.9760    -5.6220 ca         1 TPB      -0.076000
     22 C16         -5.7070    -2.9030    -5.2480 ca         1 TPB      -0.149000
     23 C17         -6.9110    -6.3900    -5.6480 cg         1 TPB       0.232800
     24 N6          -7.5540    -7.2680    -5.9700 n1         1 TPB      -0.343800
     25 C41          2.1410    -0.0010     3.6980 c3         1 TPB      -0.051800
     26 HN7         -0.9350    -0.8660    -1.6530 hn         1 TPB       0.466800
     27 H211         2.5790     0.9780    -1.4690 hc         1 TPB       0.054200
     28 H212         1.4630    -0.2340    -2.1150 hc         1 TPB       0.054200
     29 H213         2.9290    -0.7440    -1.2660 hc         1 TPB       0.054200
     30 H3           3.1600    -0.0000     1.1990 ha         1 TPB       0.137500
     31 H5          -0.5360    -0.0050     3.3370 ha         1 TPB       0.137500
     32 H611        -2.5620    -0.6920     0.4580 hc         1 TPB       0.054200
     33 H612        -2.5600     0.9970     0.9850 hc         1 TPB       0.054200
     34 H613        -2.5570    -0.3040     2.1840 hc         1 TPB       0.054200
     35 HN5         -4.3820    -2.7620    -4.3790 hn         1 TPB       0.567800
     36 H10         -2.7910    -3.9380    -0.2780 h4         1 TPB       0.027100
     37 H7          -1.2120    -2.1000     0.3310 ha         1 TPB       0.166000
     38 H12         -3.2470    -4.5520    -3.5940 ha         1 TPB       0.180000
     39 H13         -4.6310    -6.4760    -4.2490 ha         1 TPB       0.155500
     40 H15         -7.3920    -3.8170    -6.1910 ha         1 TPB       0.155500
     41 H16         -6.0040    -1.8990    -5.5230 ha         1 TPB       0.180000
     42 H411         3.0570     0.5660     3.5860 hc         1 TPB       0.046367
     43 H412         1.5290     0.4510     4.4700 hc         1 TPB       0.046367
     44 H413         2.3790    -1.0200     3.9770 hc         1 TPB       0.046367
@<TRIPOS>BOND
     1     1     2 1
     2     1     3 ar
     3     1     8 ar
     4     2    10 1
     5     2    26 1
     6     3     4 1
     7     3     5 ar
     8     4    27 1
     9     4    28 1
    10     4    29 1
    11     5     6 ar
    12     5    30 1
    13     6     7 ar
    14     6    25 1
    15     7     8 ar
    16     7    31 1
    17     8     9 1
    18     9    32 1
    19     9    33 1
    20     9    34 1
    21    10    11 ar
    22    10    16 ar
    23    11    12 ar
    24    12    13 1
    25    12    14 ar
    26    13    17 1
    27    13    35 1
    28    14    15 ar
    29    15    16 ar
    30    15    36 1
    31    16    37 1
    32    17    18 ar
    33    17    22 ar
    34    18    19 ar
    35    18    38 1
    36    19    20 ar
    37    19    39 1
    38    20    21 ar
    39    20    23 1
    40    21    22 ar
    41    21    40 1
    42    22    41 1
    43    23    24 3
    44    25    42 1
    45    25    43 1
    46    25    44 1
@<TRIPOS>SUBSTRUCTURE
     1 TPB         1 TEMP              0 ****  ****    0 ROOT
