@<TRIPOS>MOLECULE
TPD
   30    31     1     0     0
SMALL
bcc


@<TRIPOS>ATOM
      1 C3           0.0000     0.0000     0.0000 cc         1 TPD      -0.150600
      2 C9           0.8680     2.4430     4.4990 c3         1 TPD       0.348100
      3 C10          1.2740     3.8140     4.9730 cc         1 TPD      -0.022400
      4 C11          1.7230     4.8690     4.2510 cd         1 TPD      -0.110000
      5 C12          2.0370     6.0450     4.9050 cd         1 TPD      -0.162000
      6 C13          1.8960     6.1050     6.2520 cc         1 TPD       0.082900
      7 O1A         -0.3730     0.5390    -2.4600 o          1 TPD      -0.484300
      8 O2A         -2.3350     0.5220    -0.8720 o          1 TPD      -0.484300
      9 N21         -1.4150    -1.5750    -1.7640 nz         1 TPD      -0.127500
     10 S1          -1.1100     0.0040    -1.3700 sy         1 TPD       0.994200
     11 C4           1.3550     0.0000     0.0000 cd         1 TPD       0.036000
     12 C5           2.0250     0.0000     1.2090 cd         1 TPD      -0.078000
     13 C6           1.3070    -0.0100     2.3580 cc         1 TPD       0.103400
     14 S2          -0.3700    -0.0120     1.7460 ss         1 TPD      -0.093800
     15 S7           1.8800    -0.0180     4.0240 sy         1 TPD       1.059200
     16 O3B          0.8140    -0.5530     4.7950 o          1 TPD      -0.547800
     17 O4B          3.2010    -0.5390     3.9750 o          1 TPD      -0.547800
     18 N8           2.0340     1.5590     4.5020 n7         1 TPD      -0.572100
     19 S14          1.2970     4.4680     6.6350 ss         1 TPD      -0.288800
     20 H91          0.4690     2.5120     3.4940 h1         1 TPD       0.018700
     21 H92          0.1100     2.0420     5.1610 h1         1 TPD       0.018700
     22 H11          1.8270     4.7940     3.1750 ha         1 TPD       0.107000
     23 H12          2.3950     6.9040     4.3500 ha         1 TPD       0.122000
     24 H13          2.0940     6.9330     6.9220 h4         1 TPD       0.169000
     25 HNL1        -1.7950    -2.0500    -0.9690 hn         1 TPD       0.316467
     26 HNL2        -0.5630    -2.0200    -2.0430 hn         1 TPD       0.316467
     27 H4           1.9050     0.0070    -0.9330 ha         1 TPD       0.130000
     28 H5           3.1080     0.0020     1.2380 ha         1 TPD       0.155000
     29 HN8          2.9210     1.9020     4.8160 hn         1 TPD       0.375800
     30 H213        -2.0800    -1.6100    -2.5110 hn         1 TPD       0.316467
@<TRIPOS>BOND
     1     1    10 1   
     2     1    11 2   
     3     1    14 1   
     4     2     3 1   
     5     2    18 1   
     6     2    20 1   
     7     2    21 1   
     8     3     4 2   
     9     3    19 1   
    10     4     5 1   
    11     4    22 1   
    12     5     6 2   
    13     5    23 1   
    14     6    19 1   
    15     6    24 1   
    16     7    10 2   
    17     8    10 2   
    18     9    10 1   
    19     9    25 1   
    20     9    26 1   
    21     9    30 1   
    22    11    12 1   
    23    11    27 1   
    24    12    13 2   
    25    12    28 1   
    26    13    14 1   
    27    13    15 1   
    28    15    16 2   
    29    15    17 2   
    30    15    18 1   
    31    18    29 1   
@<TRIPOS>SUBSTRUCTURE
     1 TPD         1 TEMP              0 ****  ****    0 ROOT
