@<TRIPOS>MOLECULE
TPE
   54    56     1     0     0
SMALL
bcc


@<TRIPOS>ATOM
      1 C1B        -0.4180   -1.3320   -2.7390 ca        1 TPE      0.258100
      2 C2B         0.9060   -0.8500   -2.6420 ca        1 TPE     -0.187500
      3 C3B         1.2440    0.0720   -1.6580 ca        1 TPE     -0.119000
      4 C4B         0.2830    0.5370   -0.7620 ca        1 TPE     -0.207000
      5 C5B        -1.0270    0.0660   -0.8540 ca        1 TPE     -0.119000
      6 C6B        -1.3900   -0.8550   -1.8300 ca        1 TPE     -0.187500
      7 PA         -4.0420   -4.0880   -2.9250 p5        1 TPE      1.607800
      8 O1A        -4.4560   -3.1230   -1.8990 o         1 TPE     -0.870000
      9 O2A        -4.2560   -5.5520   -2.8850 o         1 TPE     -0.870000
     10 O3A        -2.4570   -3.8830   -3.2710 os        1 TPE     -0.827800
     11 PB         -0.9020   -3.7970   -3.6900 p5        1 TPE      1.623800
     12 O1B         0.0120   -4.2610   -2.6420 o         1 TPE     -0.872500
     13 O2B        -0.8350   -4.2170   -5.1090 o         1 TPE     -0.872500
     14 O3B        -0.7510   -2.1250   -3.7720 os        1 TPE     -0.506500
     15 O5'        -4.7570   -3.6010   -4.3410 os        1 TPE     -0.592200
     16 C5'        -4.0950   -3.7350   -5.5500 c3        1 TPE      0.173400
     17 C4'        -4.6390   -4.9320   -6.3540 c3        1 TPE      0.105100
     18 O4'        -4.2710   -4.7840   -7.7390 os        1 TPE     -0.437600
     19 C3'        -4.0180   -6.2510   -5.8550 c3        1 TPE      0.090100
     20 O3'        -4.9930   -7.2860   -6.0580 os        1 TPE     -0.426900
     21 CR         -5.0400   -8.3310   -5.1740 c         1 TPE      0.654100
     22 OR         -5.9150   -9.1510   -5.4870 o         1 TPE     -0.576000
     23 CHR        -4.1260   -8.4240   -4.0080 c3        1 TPE     -0.218100
     24 C2'        -2.8340   -6.4760   -6.8000 c3        1 TPE     -0.146400
     25 C1'        -3.2430   -5.7290   -8.0900 c3        1 TPE      0.302500
     26 N1         -2.1470   -5.0470   -8.7810 n         1 TPE     -0.360000
     27 C2         -2.0620   -5.1650  -10.1890 c         1 TPE      0.801500
     28 O2         -2.7720   -5.9630  -10.8500 o         1 TPE     -0.686500
     29 N3         -1.1100   -4.3880  -10.8710 n         1 TPE     -0.596500
     30 C4         -0.2540   -3.4750  -10.2240 c         1 TPE      0.720700
     31 O4          0.5460   -2.8350  -10.9380 o         1 TPE     -0.673500
     32 C5         -0.3970   -3.3810   -8.7720 cc        1 TPE     -0.297400
     33 C5M         0.4920   -2.4620   -8.0330 c3        1 TPE     -0.024900
     34 C6         -1.3330   -4.1380   -8.1220 cd        1 TPE      0.071600
     35 H2B         1.6620   -1.2230   -3.3460 ha        1 TPE      0.154000
     36 H3B         2.2800    0.4340   -1.5860 ha        1 TPE      0.102000
     37 H4B         0.5560    1.2640    0.0130 ha        1 TPE      0.095000
     38 H5B        -1.7870    0.4240   -0.1440 ha        1 TPE      0.102000
     39 H6B        -2.4260   -1.2280   -1.8870 ha        1 TPE      0.154000
     40 H5'2       -4.2890   -2.8050   -6.1570 h1        1 TPE      0.048200
     41 H5'1       -2.9830   -3.8510   -5.3930 h1        1 TPE      0.048200
     42 H4'        -5.7580   -4.9600   -6.3370 h1        1 TPE      0.087700
     43 H3'        -3.7330   -6.1490   -4.7640 h1        1 TPE      0.163700
     44 HHR3       -4.2630   -9.4090   -3.5020 hc        1 TPE      0.094367
     45 HHR2       -4.3540   -7.5910   -3.2780 hc        1 TPE      0.094367
     46 HHR1       -3.0640   -8.3140   -4.3350 hc        1 TPE      0.094367
     47 H2'2       -2.6730   -7.5570   -7.0180 hc        1 TPE      0.091700
     48 H2'1       -1.9080   -6.0440   -6.3300 hc        1 TPE      0.091700
     49 H1'        -3.7170   -6.4370   -8.8360 h2        1 TPE      0.096700
     50 H3         -1.0670   -4.4930  -11.8580 hn        1 TPE      0.327500
     51 H5M3        0.3900   -2.6280   -6.9280 hc        1 TPE      0.049033
     52 H5M2        0.2300   -1.4000   -8.2660 hc        1 TPE      0.049033
     53 H5M1        1.5560   -2.6300   -8.3340 hc        1 TPE      0.049033
     54 H6         -1.4600   -4.0750   -7.0070 h4        1 TPE      0.274000
@<TRIPOS>BOND
     1    1    2 ar  
     2    1    6 ar  
     3    1   14 1   
     4    2    3 ar  
     5    2   35 1   
     6    3    4 ar  
     7    3   36 1   
     8    4    5 ar  
     9    4   37 1   
    10    5    6 ar  
    11    5   38 1   
    12    6   39 1   
    13    7    8 1   
    14    7    9 1   
    15    7   10 1   
    16    7   15 1   
    17   10   11 1   
    18   11   12 1   
    19   11   13 1   
    20   11   14 1   
    21   15   16 1   
    22   16   17 1   
    23   16   40 1   
    24   16   41 1   
    25   17   18 1   
    26   17   19 1   
    27   17   42 1   
    28   18   25 1   
    29   19   20 1   
    30   19   24 1   
    31   19   43 1   
    32   20   21 1   
    33   21   22 2   
    34   21   23 1   
    35   23   44 1   
    36   23   45 1   
    37   23   46 1   
    38   24   25 1   
    39   24   47 1   
    40   24   48 1   
    41   25   26 1   
    42   25   49 1   
    43   26   27 1   
    44   26   34 1   
    45   27   28 2   
    46   27   29 1   
    47   29   30 1   
    48   29   50 1   
    49   30   31 2   
    50   30   32 1   
    51   32   33 1   
    52   32   34 2   
    53   33   51 1   
    54   33   52 1   
    55   33   53 1   
    56   34   54 1   
@<TRIPOS>SUBSTRUCTURE
     1 TPE         1 TEMP              0 ****  ****    0 ROOT
