@<TRIPOS>MOLECULE
TPF
   34    36     1     0     0
SMALL
bcc


@<TRIPOS>ATOM
      1 O          -0.0470   -0.0860    0.0180 oh        1 TPF     -0.558800
      2 C1          1.3690   -0.0690   -0.0410 c3        1 TPF      0.180100
      3 C2          1.9900   -0.1330    1.3870 c3        1 TPF      0.041300
      4 C5          1.7590   -1.3510   -0.8280 c3        1 TPF      0.041300
      5 C8          1.8750    1.1880   -0.7070 ca        1 TPF     -0.174300
      6 N1          1.4530   -1.1590    2.2480 na        1 TPF     -0.060400
      7 C3          2.0290   -2.4290    2.4850 cc        1 TPF      0.401400
      8 N3          0.2770   -1.0690    2.9010 nc        1 TPF     -0.504800
      9 N2          1.2260   -3.1360    3.3030 nd        1 TPF     -0.677500
     10 C4          0.1460   -2.2620    3.5410 cd        1 TPF      0.503900
     11 N4          1.4640   -1.3260   -2.2390 na        1 TPF     -0.060400
     12 C6          2.3970   -1.0380   -3.2650 cc        1 TPF      0.401400
     13 N6          0.2480   -1.5290   -2.7800 nc        1 TPF     -0.504800
     14 N5          1.7720   -1.0730   -4.4570 nd        1 TPF     -0.677500
     15 C7          0.4390   -1.3800   -4.1200 cd        1 TPF      0.503900
     16 C9          0.9610    2.1490   -1.1570 ca        1 TPF     -0.058000
     17 C13         3.2520    1.4320   -0.9120 ca        1 TPF      0.145900
     18 C10         1.3770    3.3280   -1.7620 ca        1 TPF     -0.173000
     19 C11         2.7520    3.5700   -1.9370 ca        1 TPF      0.165900
     20 F1          3.1700    4.7180   -2.5170 f         1 TPF     -0.125900
     21 C12         3.6960    2.6200   -1.5170 ca        1 TPF     -0.204000
     22 F2          4.1860    0.5210   -0.5390 f         1 TPF     -0.147900
     23 HO         -0.3210    0.5160    0.7240 ho        1 TPF      0.417000
     24 HC21        1.8280    0.8710    1.8760 h1        1 TPF      0.084700
     25 HC22        3.0980   -0.3160    1.2940 h1        1 TPF      0.084700
     26 HC51        2.8700   -1.5010   -0.7200 h1        1 TPF      0.084700
     27 HC52        1.2050   -2.2150   -0.3560 h1        1 TPF      0.084700
     28 HC3         2.9900   -2.7440    2.0670 h5        1 TPF      0.070100
     29 HC4        -0.7030   -2.5290    4.1790 h5        1 TPF      0.074100
     30 HC6         3.4560   -0.8360   -3.0750 h5        1 TPF      0.070100
     31 HC7        -0.3520   -1.4880   -4.8690 h5        1 TPF      0.074100
     32 HC9        -0.1200    1.9550   -1.0460 ha        1 TPF      0.166000
     33 H10         0.6440    4.0700   -2.1100 ha        1 TPF      0.162000
     34 H12         4.7710    2.7980   -1.6630 ha        1 TPF      0.170000
@<TRIPOS>BOND
     1    1    2 1   
     2    1   23 1   
     3    2    3 1   
     4    2    4 1   
     5    2    5 1   
     6    3    6 1   
     7    3   24 1   
     8    3   25 1   
     9    4   11 1   
    10    4   26 1   
    11    4   27 1   
    12    5   16 ar  
    13    5   17 ar  
    14    6    7 1   
    15    6    8 1   
    16    7    9 2   
    17    7   28 1   
    18    8   10 2   
    19    9   10 1   
    20   10   29 1   
    21   11   12 1   
    22   11   13 1   
    23   12   14 2   
    24   12   30 1   
    25   13   15 2   
    26   14   15 1   
    27   15   31 1   
    28   16   18 ar  
    29   16   32 1   
    30   17   21 ar  
    31   17   22 1   
    32   18   19 ar  
    33   18   33 1   
    34   19   20 1   
    35   19   21 ar  
    36   21   34 1   
@<TRIPOS>SUBSTRUCTURE
     1 TPF         1 TEMP              0 ****  ****    0 ROOT
