@<TRIPOS>MOLECULE
molecule
   34    36     1     0     0
SMALL
bcc


@<TRIPOS>ATOM
      1 O            0.0000     0.0000     0.0000 oh         1 TPF      -0.544800
      2 C1           1.4290     0.0000     0.0000 c3         1 TPF       0.183100
      3 C2           1.9390     0.0000     1.4420 c3         1 TPF       0.058800
      4 C5           1.9390    -1.2470    -0.7210 c3         1 TPF       0.058800
      5 C8           1.9290     1.2310    -0.7100 ca         1 TPF      -0.182300
      6 N1           1.4520    -1.1970     2.1320 na         1 TPF      -0.071400
      7 C3           2.1970    -2.1650     2.6910 cc         1 TPF       0.439400
      8 N3           0.1120    -1.5570     2.3470 nc         1 TPF      -0.523800
      9 N2           1.3890    -3.0550     3.2060 nd         1 TPF      -0.760500
     10 C4           0.1250    -2.6920     2.9960 cd         1 TPF       0.560900
     11 N4           1.4500    -1.2470    -2.1020 na         1 TPF      -0.071400
     12 C6           2.1960    -1.2470    -3.2200 cc         1 TPF       0.439400
     13 N6           0.1100    -1.2550    -2.5210 nc         1 TPF      -0.523800
     14 N5           1.3870    -1.2480    -4.2480 nd         1 TPF      -0.760500
     15 C7           0.1220    -1.2500    -3.8280 cd         1 TPF       0.560900
     16 C9           1.0300     2.1400    -1.2350 ca         1 TPF      -0.048000
     17 C13          3.2900     1.4540    -0.8310 ca         1 TPF       0.148900
     18 C10          1.4890     3.2690    -1.8870 ca         1 TPF      -0.175000
     19 C11          2.8500     3.4910    -2.0150 ca         1 TPF       0.170900
     20 F1           3.2980     4.5950    -2.6520 f          1 TPF      -0.126900
     21 C12          3.7500     2.5820    -1.4890 ca         1 TPF      -0.205000
     22 F2           4.1680     0.5660    -0.3190 f          1 TPF      -0.144900
     23 HO          -0.3140     0.6340     0.6230 ho         1 TPF       0.409000
     24 HC21         3.0230     0.0010     1.4410 h1         1 TPF       0.080450
     25 HC22         1.5780     0.8840     1.9530 h1         1 TPF       0.080450
     26 HC51         3.0220    -1.2470    -0.7220 h1         1 TPF       0.080450
     27 HC52         1.5790    -2.1320    -0.2110 h1         1 TPF       0.080450
     28 HC3          3.2790    -2.2010     2.7120 h5         1 TPF       0.068100
     29 HC4         -0.7500    -3.2440     3.3160 h5         1 TPF       0.080600
     30 HC6          3.2790    -1.2450    -3.2630 h5         1 TPF       0.068100
     31 HC7         -0.7530    -1.2520    -4.4650 h5         1 TPF       0.080600
     32 HC9         -0.0350     1.9680    -1.1350 ha         1 TPF       0.167000
     33 H10          0.7830     3.9810    -2.2980 ha         1 TPF       0.158000
     34 H12          4.8150     2.7560    -1.5870 ha         1 TPF       0.164000
@<TRIPOS>BOND
     1     1     2 1
     2     1    23 1
     3     2     3 1
     4     2     4 1
     5     2     5 1
     6     3     6 1
     7     3    24 1
     8     3    25 1
     9     4    11 1
    10     4    26 1
    11     4    27 1
    12     5    16 ar
    13     5    17 ar
    14     6     7 1
    15     6     8 1
    16     7     9 2
    17     7    28 1
    18     8    10 2
    19     9    10 1
    20    10    29 1
    21    11    12 1
    22    11    13 1
    23    12    14 2
    24    12    30 1
    25    13    15 2
    26    14    15 1
    27    15    31 1
    28    16    18 ar
    29    16    32 1
    30    17    21 ar
    31    17    22 1
    32    18    19 ar
    33    18    33 1
    34    19    20 1
    35    19    21 ar
    36    21    34 1
@<TRIPOS>SUBSTRUCTURE
     1 TPF         1 TEMP              0 ****  ****    0 ROOT
