@<TRIPOS>MOLECULE
TPI
   43    43     1     0     0
SMALL
bcc


@<TRIPOS>ATOM
      1 P          -1.8160   -1.3570   -1.4960 p3        1 TPI      2.397000
      2 O1         -0.6370   -2.0280   -2.0800 o         1 TPI     -1.136333
      3 O2         -2.2580   -1.7420   -0.1390 o         1 TPI     -1.136333
      4 O3         -2.7260   -0.6080   -2.3860 o         1 TPI     -1.136333
      5 C1         -0.4470    1.4190   -0.3880 c2        1 TPI     -0.010000
      6 F1         -1.7370    1.0100   -0.3110 f         1 TPI     -0.132000
      7 F2          0.1330    0.3800   -1.0360 f         1 TPI     -0.132000
      8 C2          1.5010    2.8900   -0.0790 ca        1 TPI     -0.299000
      9 C3          0.1080    2.5810    0.0720 ca        1 TPI      0.024000
     10 C4         -0.7190    3.5640    0.7440 ca        1 TPI     -0.174000
     11 C5         -0.1990    4.7300    1.1980 ca        1 TPI     -0.085000
     12 C6          1.7260    6.2540    1.4840 ca        1 TPI      0.007000
     13 C7          3.0820    6.5720    1.3140 ca        1 TPI     -0.294000
     14 C8          3.9190    5.6070    0.6930 ca        1 TPI     -0.062000
     15 C9          3.4180    4.4150    0.2480 ca        1 TPI     -0.216000
     16 C10         2.0280    4.0770    0.3830 ca        1 TPI      0.078000
     17 C11         1.1900    5.0530    1.0380 ca        1 TPI     -0.195000
     18 C12         3.5350    7.8850    1.7790 c2        1 TPI      0.362000
     19 O4          2.7760    8.6680    2.4160 o         1 TPI     -0.470000
     20 N1          4.8140    8.3370    1.4730 n         1 TPI     -0.391000
     21 C13         5.3080    9.6110    1.9190 c3        1 TPI      0.034000
     22 C14         4.5740   10.8470    1.3420 c2        1 TPI      0.286000
     23 N2          3.5660   10.7120    0.4090 n         1 TPI     -0.399000
     24 O5          4.9080   11.9990    1.7020 o         1 TPI     -0.427000
     25 C15         6.8130    9.8070    1.6570 c3        1 TPI     -0.147000
     26 C16         7.6780    8.9200    2.5170 c3        1 TPI     -0.221000
     27 C17         9.1710    9.2240    2.3010 c2        1 TPI      0.328000
     28 O6          9.6150    9.3090    1.1190 o         1 TPI     -0.595500
     29 O7          9.9030    9.3600    3.3270 o         1 TPI     -0.595500
     30 H41        -1.7840    3.3220    0.8670 ha        1 TPI      0.114000
     31 H51        -0.8390    5.4680    1.7060 ha        1 TPI      0.091000
     32 H61         1.0740    6.9900    1.9840 ha        1 TPI      0.116000
     33 H81         4.9940    5.8070    0.5710 ha        1 TPI      0.096000
     34 H91         4.0770    3.6760   -0.2290 ha        1 TPI      0.107000
     35 HN11        5.4470    7.7540    0.9830 hn        1 TPI      0.233000
     36 H131        5.1180    9.6930    3.0360 h1        1 TPI      0.114000
     37 HN21        3.0230   11.5210    0.2220 hn        1 TPI      0.206000
     38 HN22        3.0810    9.8480    0.3470 hn        1 TPI      0.206000
     39 H151        7.0560   10.8810    1.8770 hc        1 TPI      0.102000
     40 H152        7.0550    9.6250    0.5770 hc        1 TPI      0.102000
     41 H161        7.5090    7.8430    2.2640 hc        1 TPI      0.066000
     42 H162        7.4280    9.0630    3.5980 hc        1 TPI      0.066000
     43 H21         2.1380    2.1490   -0.5780 ha        1 TPI      0.118000
@<TRIPOS>BOND
     1    1    2 1   
     2    1    3 1   
     3    1    4 1   
     4    5    6 1   
     5    5    7 1   
     6    5    9 1   
     7    8    9 1   
     8    8   16 1   
     9    8   43 1   
    10    9   10 1   
    11   10   11 1   
    12   10   30 1   
    13   11   17 1   
    14   11   31 1   
    15   12   13 1   
    16   12   17 1   
    17   12   32 1   
    18   13   14 1   
    19   13   18 1   
    20   14   15 1   
    21   14   33 1   
    22   15   16 1   
    23   15   34 1   
    24   16   17 1   
    25   18   19 1   
    26   18   20 1   
    27   20   21 1   
    28   20   35 1   
    29   21   22 1   
    30   21   25 1   
    31   21   36 1   
    32   22   23 1   
    33   22   24 1   
    34   23   37 1   
    35   23   38 1   
    36   25   26 1   
    37   25   39 1   
    38   25   40 1   
    39   26   27 1   
    40   26   41 1   
    41   26   42 1   
    42   27   28 1   
    43   27   29 1   
@<TRIPOS>SUBSTRUCTURE
     1 TPI         1 TEMP              0 ****  ****    0 ROOT
