@<TRIPOS>MOLECULE
TPM
   33    34     1     0     0
SMALL
bcc


@<TRIPOS>ATOM
      1 C1           0.0000     0.0000     0.0000 ca         1 TPM       0.082600
      2 C2           1.3880     0.0000     0.0000 ca         1 TPM      -0.105000
      3 C3           2.0770     0.0000     1.1980 ca         1 TPM      -0.066500
      4 C5           0.0030    -0.0000     2.3980 ca         1 TPM      -0.066500
      5 C6          -0.6930     0.0050     1.2040 ca         1 TPM      -0.105000
      6 C4           1.3850     0.0000     2.3950 ca         1 TPM      -0.181300
      7 C7           2.1400     0.0010     3.6990 c3         1 TPM       0.019600
      8 N1          -0.7000     0.0000    -1.2090 nv         1 TPM      -0.564200
      9 N2           2.3840     1.3830     4.1210 nu         1 TPM       0.045900
     10 C8           3.0590     1.6330     5.2870 c2         1 TPM       0.064800
     11 N3           3.4560     0.6340     5.9730 nu         1 TPM       0.220800
     12 C9           3.2880     3.0670     5.6700 c3         1 TPM      -0.071700
     13 C10          3.6710     3.1540     7.1520 c3         1 TPM      -0.029400
     14 C11          4.7700     2.1180     7.4200 c3         1 TPM      -0.039400
     15 C12          4.1740     0.7210     7.2370 c3         1 TPM      -0.064700
     16 HC21         1.9310    -0.0020    -0.9380 ha         1 TPM       0.125000
     17 HC31         3.1610     0.0000     1.1990 ha         1 TPM       0.104500
     18 HC51        -0.5350     0.0020     3.3380 ha         1 TPM       0.104500
     19 HC61        -1.7760     0.0050     1.2070 ha         1 TPM       0.125000
     20 HC71         3.0870    -0.5090     3.5690 h1         1 TPM       0.033700
     21 HC72         1.5560    -0.5090     4.4550 h1         1 TPM       0.033700
     22 HN11        -0.9500     0.8670    -1.6430 hn         1 TPM       0.288300
     23 HN12        -0.9520    -0.8660    -1.6420 hn         1 TPM       0.288300
     24 HN21         2.0910     2.1420     3.5390 hn         1 TPM       0.180700
     25 HN31         3.2600    -0.2800     5.6140 hn         1 TPM       0.149700
     26 HC91         4.0900     3.4760     5.0680 hc         1 TPM       0.061700
     27 HC92         2.3800     3.6330     5.5010 hc         1 TPM       0.061700
     28 H101         4.0430     4.1460     7.3750 hc         1 TPM       0.046200
     29 H102         2.8060     2.9350     7.7660 hc         1 TPM       0.046200
     30 H111         5.5830     2.2610     6.7190 hc         1 TPM       0.048700
     31 H112         5.1330     2.2280     8.4350 hc         1 TPM       0.048700
     32 H121         4.9730    -0.0110     7.2440 h1         1 TPM       0.057200
     33 H122         3.4880     0.5170     8.0510 h1         1 TPM       0.057200
@<TRIPOS>BOND
     1     1     2 ar  
     2     1     5 ar  
     3     1     8 1   
     4     2     3 ar  
     5     2    16 1   
     6     3     6 ar  
     7     3    17 1   
     8     4     5 ar  
     9     4     6 ar  
    10     4    18 1   
    11     5    19 1   
    12     6     7 1   
    13     7     9 1   
    14     7    20 1   
    15     7    21 1   
    16     8    22 1   
    17     8    23 1   
    18     9    10 2   
    19     9    24 1   
    20    10    11 1   
    21    10    12 1   
    22    11    15 1   
    23    11    25 1   
    24    12    13 1   
    25    12    26 1   
    26    12    27 1   
    27    13    14 1   
    28    13    28 1   
    29    13    29 1   
    30    14    15 1   
    31    14    30 1   
    32    14    31 1   
    33    15    32 1   
    34    15    33 1   
@<TRIPOS>SUBSTRUCTURE
     1 TPM         1 TEMP              0 ****  ****    0 ROOT
