@<TRIPOS>MOLECULE
molecule
   42    43     1     0     0
SMALL
bcc


@<TRIPOS>ATOM
      1 N1'          0.0000     0.0000     0.0000 nb         1 TPP      -0.752000
      2 C2'          1.3170     0.0000     0.0000 ca         1 TPP       0.686300
      3 CM2          2.0520     0.0020    -1.3160 c3         1 TPP      -0.119400
      4 N3'          2.0120     0.0000     1.1200 nb         1 TPP      -0.771000
      5 C4'          1.3980    -0.0020     2.2990 ca         1 TPP       0.732200
      6 N4'          2.1310    -0.0020     3.4740 nv         1 TPP      -1.072500
      7 C5'          0.0020    -0.0030     2.3340 ca         1 TPP      -0.387900
      8 C6'         -0.6840    -0.0010     1.1350 ca         1 TPP       0.475200
      9 C7'         -0.7380    -0.0050     3.6470 c3         1 TPP       0.092600
     10 N3          -0.8050     1.3620     4.1710 na         1 TPP       0.050900
     11 C2           0.0950     1.8180     4.9760 cc         1 TPP      -0.312400
     12 S1          -0.2640     3.4340     5.4060 ss         1 TPP      -0.104800
     13 C5          -1.7110     3.3900     4.4010 cc         1 TPP      -0.076400
     14 C4          -1.7830     2.1790     3.8380 cd         1 TPP      -0.080600
     15 CM4         -2.8950     1.7810     2.9030 c3         1 TPP      -0.033800
     16 C6          -2.6890     4.5190     4.2050 c3         1 TPP      -0.008100
     17 C7          -3.7880     4.4310     5.2660 c3         1 TPP       0.235400
     18 O7          -4.7170     5.5010     5.0790 os         1 TPP      -0.608200
     19 PA          -6.0050     5.7180     6.0200 p5         1 TPP       1.437800
     20 O1A         -5.5750     5.7980     7.4340 o          1 TPP      -0.844500
     21 O2A         -7.0170     4.4800     5.8360 o          1 TPP      -0.844500
     22 O3A         -6.7470     7.0850     5.6070 os         1 TPP      -0.712800
     23 PB          -7.7870     8.0630     6.3520 p5         1 TPP       1.303900
     24 O1B         -8.7710     7.2540     7.1060 o          1 TPP      -0.667167
     25 O2B         -6.9870     9.0210     7.3700 o          1 TPP      -0.667167
     26 O3B         -8.5550     8.9630     5.2600 o          1 TPP      -0.667167
     27 HM21         3.0830    -0.2890    -1.1550 hc         1 TPP       0.053700
     28 HM22         2.0200     0.9960    -1.7460 hc         1 TPP       0.053700
     29 HM23         1.5800    -0.7000    -1.9940 hc         1 TPP       0.053700
     30 HN41         2.6290     0.8200     3.7540 hn         1 TPP       0.440300
     31 HN42         2.1670    -0.8260     4.0420 hn         1 TPP       0.440300
     32 H6'         -1.7670    -0.0010     1.1230 h4         1 TPP       0.035100
     33 H7'1        -0.2160    -0.6370     4.3550 h1         1 TPP       0.065700
     34 H7'2        -1.7410    -0.3830     3.4960 h1         1 TPP       0.065700
     35 H2           0.9530     1.2590     5.3280 h5         1 TPP       0.174000
     36 HM41        -2.5450     1.8380     1.8790 hc         1 TPP       0.055033
     37 HM42        -3.2050     0.7660     3.1220 hc         1 TPP       0.055033
     38 HM43        -3.7360     2.4520     3.0350 hc         1 TPP       0.055033
     39 H61         -2.1700     5.4660     4.3000 hc         1 TPP       0.055700
     40 H62         -3.1310     4.4470     3.2190 hc         1 TPP       0.055700
     41 H71         -4.3050     3.4840     5.1720 h1         1 TPP       0.028200
     42 H72         -3.3450     4.5040     6.2520 h1         1 TPP       0.028200
@<TRIPOS>BOND
     1     1     2 ar
     2     1     8 ar
     3     2     3 1
     4     2     4 ar
     5     3    27 1
     6     3    28 1
     7     3    29 1
     8     4     5 ar
     9     5     6 1
    10     5     7 ar
    11     6    30 1
    12     6    31 1
    13     7     8 ar
    14     7     9 1
    15     8    32 1
    16     9    10 1
    17     9    33 1
    18     9    34 1
    19    10    11 2
    20    10    14 1
    21    11    12 1
    22    11    35 1
    23    12    13 1
    24    13    14 2
    25    13    16 1
    26    14    15 1
    27    15    36 1
    28    15    37 1
    29    15    38 1
    30    16    17 1
    31    16    39 1
    32    16    40 1
    33    17    18 1
    34    17    41 1
    35    17    42 1
    36    18    19 1
    37    19    20 1
    38    19    21 1
    39    19    22 1
    40    22    23 1
    41    23    24 1
    42    23    25 1
    43    23    26 1
@<TRIPOS>SUBSTRUCTURE
     1 TPP         1 TEMP              0 ****  ****    0 ROOT
