@<TRIPOS>MOLECULE
molecule
   32    33     1     0     0
SMALL
bcc


@<TRIPOS>ATOM
      1 C1           0.0000     0.0000     0.0000 ca         1 TPR      -0.162500
      2 C2           1.3810     0.0000     0.0000 ca         1 TPR      -0.050300
      3 C3           2.0720     0.0000     1.1970 ca         1 TPR      -0.162500
      4 C4           1.3800     0.0110     2.3940 ca         1 TPR      -0.024000
      5 C5          -0.0010     0.0110     2.3940 ca         1 TPR      -0.312500
      6 C6          -0.6920     0.0070     1.1970 ca         1 TPR      -0.024000
      7 C7           2.1350    -0.0060    -1.3040 c3         1 TPR      -0.050800
      8 S8          -0.8830     0.0210     3.9180 sy         1 TPR       1.445200
      9 O9           0.0420     0.4800     4.8960 o          1 TPR      -0.624300
     10 O10         -2.1410     0.6160     3.6340 o          1 TPR      -0.624300
     11 N           -1.2070    -1.5540     4.3130 n3         1 TPR      -0.795500
     12 CD          -2.3630    -2.3370     3.8390 c3         1 TPR       0.248800
     13 CG          -1.9110    -3.8140     3.9420 c3         1 TPR      -0.108400
     14 CB          -1.0660    -3.7910     5.2430 c3         1 TPR      -0.063400
     15 CA          -0.3890    -2.4040     5.1870 c3         1 TPR       0.139500
     16 C           -0.3320    -1.8080     6.5690 c          1 TPR       0.888600
     17 O           -1.2180    -1.0820     6.9510 o          1 TPR      -0.833800
     18 OXT          0.7050    -2.0820     7.3770 o          1 TPR      -0.833800
     19 HC1         -0.5410    -0.0020    -0.9380 ha         1 TPR       0.123500
     20 HC3          3.1550    -0.0000     1.1980 ha         1 TPR       0.123500
     21 HC4          1.9210     0.0130     3.3320 ha         1 TPR       0.154500
     22 HC6         -1.7750     0.0070     1.1970 ha         1 TPR       0.154500
     23 HC71         1.4590     0.2400    -2.1130 hc         1 TPR       0.039033
     24 HC72         2.9320     0.7260    -1.2640 hc         1 TPR       0.039033
     25 HC73         2.5560    -0.9900    -1.4730 hc         1 TPR       0.039033
     26 HCD1        -3.2220    -2.1610     4.4750 h1         1 TPR       0.034200
     27 HCD2        -2.5900    -2.0850     2.8100 h1         1 TPR       0.034200
     28 HCG1        -1.3020    -4.0910     3.0910 hc         1 TPR       0.032700
     29 HCG2        -2.7650    -4.4720     4.0490 hc         1 TPR       0.032700
     30 HCB1        -1.7040    -3.8690     6.1140 hc         1 TPR       0.051200
     31 HCB2        -0.3230    -4.5790     5.2290 hc         1 TPR       0.051200
     32 HCA          0.6100    -2.4990     4.7790 h1         1 TPR       0.039700
@<TRIPOS>BOND
     1     1     2 ar
     2     1     6 ar
     3     1    19 1
     4     2     3 ar
     5     2     7 1
     6     3     4 ar
     7     3    20 1
     8     4     5 ar
     9     4    21 1
    10     5     6 ar
    11     5     8 1
    12     6    22 1
    13     7    23 1
    14     7    24 1
    15     7    25 1
    16     8     9 2
    17     8    10 2
    18     8    11 1
    19    11    12 1
    20    11    15 1
    21    12    13 1
    22    12    26 1
    23    12    27 1
    24    13    14 1
    25    13    28 1
    26    13    29 1
    27    14    15 1
    28    14    30 1
    29    14    31 1
    30    15    16 1
    31    15    32 1
    32    16    17 1
    33    16    18 1
@<TRIPOS>SUBSTRUCTURE
     1 TPR         1 TEMP              0 ****  ****    0 ROOT
