@<TRIPOS>MOLECULE
molecule
   38    39     1     0     0
SMALL
bcc


@<TRIPOS>ATOM
      1 CM2          0.0000     0.0000     0.0000 c3         1 TPS      -0.125400
      2 N3           6.1830     1.3680    -0.1540 na         1 TPS       0.073900
      3 C2           6.4410     1.8460    -1.3240 cc         1 TPS      -0.208400
      4 S1           6.9850     3.4610    -1.1940 ss         1 TPS       0.011200
      5 C5           6.8190     3.3860     0.5590 cc         1 TPS      -0.035400
      6 C4           6.3740     2.1660     0.8770 cd         1 TPS      -0.102600
      7 CM4          6.1130     1.7390     2.2990 c3         1 TPS      -0.033800
      8 C6           7.1240     4.5000     1.5270 c3         1 TPS      -0.021100
      9 C7           8.5870     4.4090     1.9640 c3         1 TPS       0.226400
     10 O7           8.8770     5.4640     2.8820 os         1 TPS      -0.573200
     11 N1A          2.1470     0.0000     1.1510 nb         1 TPS      -0.746000
     12 C2A          1.5070     0.0000     0.0000 ca         1 TPS       0.716300
     13 N3A          2.1470     0.0010    -1.1520 nb         1 TPS      -0.770000
     14 C4A          3.4770    -0.0010    -1.1890 ca         1 TPS       0.741200
     15 N4A          4.1460    -0.0010    -2.4010 nv         1 TPS      -1.070500
     16 C5A          4.1860    -0.0010     0.0140 ca         1 TPS      -0.406900
     17 C6A          3.4720    -0.0000     1.1960 ca         1 TPS       0.493200
     18 C7A          5.6930    -0.0010     0.0220 c3         1 TPS       0.082600
     19 P1          10.3280     5.6750     3.5470 p5         1 TPS       1.184900
     20 O1          11.3490     5.7780     2.4810 o          1 TPS      -0.764500
     21 O2          10.3270     7.0270     4.4210 o          1 TPS      -0.764500
     22 O3          10.6680     4.4220     4.4980 o          1 TPS      -0.764500
     23 HM21        -0.3610    -0.3070     0.9740 hc         1 TPS       0.063033
     24 HM22        -0.3610    -0.6900    -0.7530 hc         1 TPS       0.063033
     25 HM23        -0.3610     0.9970    -0.2210 hc         1 TPS       0.063033
     26 H2           6.3290     1.3020    -2.2540 h5         1 TPS       0.199000
     27 HM41         6.6580     2.3850     2.9760 hc         1 TPS       0.066033
     28 HM42         6.4410     0.7150     2.4340 hc         1 TPS       0.066033
     29 HM43         5.0520     1.8090     2.5080 hc         1 TPS       0.066033
     30 H61          6.4820     4.4100     2.3950 hc         1 TPS       0.068700
     31 H62          6.9490     5.4540     1.0460 hc         1 TPS       0.068700
     32 H71          8.7620     3.4540     2.4440 h1         1 TPS       0.022700
     33 H72          9.2290     4.5000     1.0960 h1         1 TPS       0.022700
     34 H41N         4.0680     0.7860    -3.0150 hn         1 TPS       0.443800
     35 H42N         4.6530    -0.8130    -2.6920 hn         1 TPS       0.443800
     36 H6A          3.9880    -0.0010     2.1490 h4         1 TPS       0.038100
     37 H7A1         6.0580    -0.6220    -0.7880 h1         1 TPS       0.080700
     38 H7A2         6.0490    -0.3940     0.9660 h1         1 TPS       0.080700
@<TRIPOS>BOND
     1     1    12 1
     2     1    23 1
     3     1    24 1
     4     1    25 1
     5     2     3 2
     6     2     6 1
     7     2    18 1
     8     3     4 1
     9     3    26 1
    10     4     5 1
    11     5     6 2
    12     5     8 1
    13     6     7 1
    14     7    27 1
    15     7    28 1
    16     7    29 1
    17     8     9 1
    18     8    30 1
    19     8    31 1
    20     9    10 1
    21     9    32 1
    22     9    33 1
    23    10    19 1
    24    11    12 ar
    25    11    17 ar
    26    12    13 ar
    27    13    14 ar
    28    14    15 1
    29    14    16 ar
    30    15    34 1
    31    15    35 1
    32    16    17 ar
    33    16    18 1
    34    17    36 1
    35    18    37 1
    36    18    38 1
    37    19    20 1
    38    19    21 1
    39    19    22 1
@<TRIPOS>SUBSTRUCTURE
     1 TPS         1 TEMP              0 ****  ****    0 ROOT
