@<TRIPOS>MOLECULE
molecule
   41    42     1     0     0
SMALL
bcc


@<TRIPOS>ATOM
      1 O23          0.0000     0.0000     0.0000 o          1 TPU      -0.858167
      2 P2           1.6100     0.0000     0.0000 p5         1 TPU       1.321900
      3 O22          2.1470     0.0000     1.5180 o          1 TPU      -0.858167
      4 O21          2.1030    -1.2090    -0.6970 o          1 TPU      -0.858167
      5 O11          2.1470     1.3140    -0.7590 os         1 TPU      -0.717800
      6 P1           3.5460     1.7150    -1.4480 p5         1 TPU       1.438800
      7 O12          3.6290     1.0580    -2.9150 o          1 TPU      -0.862000
      8 O13          4.6650     1.2140    -0.6190 o          1 TPU      -0.862000
      9 O5G          3.6440     3.3170    -1.5710 os         1 TPU      -0.605200
     10 C5B          4.8110     3.9910    -2.0460 c3         1 TPU       0.237400
     11 C5A          4.5680     5.5020    -2.0350 c3         1 TPU      -0.115700
     12 C5           5.7980     6.2130    -2.5360 cc         1 TPU       0.315600
     13 C4           6.0780     6.5400    -3.8180 cd         1 TPU      -0.252900
     14 C4A          5.2230     6.2670    -5.0300 c3         1 TPU      -0.013800
     15 N1           6.8260     6.6500    -1.7990 nc         1 TPU      -0.364000
     16 N2           7.6880     7.2060    -2.5750 nd         1 TPU      -0.257800
     17 N3           7.2800     7.1630    -3.7960 na         1 TPU       0.116400
     18 C35          7.9920     7.6990    -4.9580 c3         1 TPU       0.136600
     19 C5'          7.5850     9.1320    -5.1790 ca         1 TPU      -0.486900
     20 C6'          6.5780     9.4540    -6.0690 ca         1 TPU       0.463200
     21 N1'          6.2460    10.7250    -6.2390 nb         1 TPU      -0.778000
     22 C2'          6.8610    11.6820    -5.5740 ca         1 TPU       0.641300
     23 C2A          6.4500    13.1130    -5.8010 c3         1 TPU      -0.103400
     24 N3'          7.8270    11.4220    -4.7160 nb         1 TPU      -0.833000
     25 C4'          8.2120    10.1690    -4.4880 ca         1 TPU       0.747200
     26 N4'          9.2240     9.8990    -3.5800 nv         1 TPU      -1.003500
     27 H5B1         5.0280     3.6680    -3.0570 h1         1 TPU       0.023200
     28 H5B2         5.6500     3.7560    -1.4030 h1         1 TPU       0.023200
     29 H5A1         4.3500     5.8250    -1.0250 hc         1 TPU       0.055200
     30 H5A2         3.7280     5.7370    -2.6780 hc         1 TPU       0.055200
     31 H4A1         4.7030     5.3260    -4.9000 hc         1 TPU       0.047700
     32 H4A2         4.5000     7.0650    -5.1490 hc         1 TPU       0.047700
     33 H4A3         5.8510     6.2150    -5.9110 hc         1 TPU       0.047700
     34 H351         7.7440     7.1130    -5.8350 h1         1 TPU       0.054700
     35 H352         9.0600     7.6500    -4.7820 h1         1 TPU       0.054700
     36 H6'          6.0650     8.6750    -6.6210 h4         1 TPU       0.015100
     37 H2A1         6.6790    13.6990    -4.9190 hc         1 TPU       0.037367
     38 H2A2         6.9890    13.5140    -6.6510 hc         1 TPU       0.037367
     39 H2A3         5.3850    13.1560    -5.9970 hc         1 TPU       0.037367
     40 H4'1         9.5900    10.6330    -3.0050 hn         1 TPU       0.437300
     41 H4'2         9.6160     8.9800    -3.5260 hn         1 TPU       0.437300
@<TRIPOS>BOND
     1     1     2 1
     2     2     3 1
     3     2     4 1
     4     2     5 1
     5     5     6 1
     6     6     7 1
     7     6     8 1
     8     6     9 1
     9     9    10 1
    10    10    11 1
    11    11    12 1
    12    12    13 2
    13    12    15 1
    14    13    14 1
    15    13    17 1
    16    15    16 2
    17    16    17 1
    18    17    18 1
    19    18    19 1
    20    19    20 ar
    21    19    25 ar
    22    20    21 ar
    23    21    22 ar
    24    22    23 1
    25    22    24 ar
    26    24    25 ar
    27    25    26 1
    28    10    27 1
    29    10    28 1
    30    11    29 1
    31    11    30 1
    32    14    31 1
    33    14    32 1
    34    14    33 1
    35    18    34 1
    36    18    35 1
    37    20    36 1
    38    23    37 1
    39    23    38 1
    40    23    39 1
    41    26    40 1
    42    26    41 1
@<TRIPOS>SUBSTRUCTURE
     1 TPU         1 TEMP              0 ****  ****    0 ROOT
