@<TRIPOS>MOLECULE
molecule
   75    78     1     0     0
SMALL
bcc


@<TRIPOS>ATOM
      1 O1           0.0000     0.0000     0.0000 os         1 TPV      -0.382900
      2 C2           1.3410     0.0000     0.0000 c          1 TPV       0.748800
      3 C3           2.1030     0.0000     1.1870 ce         1 TPV      -0.248400
      4 C4           1.4910     0.0960     2.3850 c2         1 TPV       0.123900
      5 C5          -0.0170     0.2110     2.4060 c3         1 TPV      -0.112200
      6 C6          -0.4610     0.8200     1.0710 c3         1 TPV       0.153800
      7 O7           1.9240    -0.0000    -1.0670 o          1 TPV      -0.587500
      8 O8           2.2030     0.0890     3.5310 oh         1 TPV      -0.487100
      9 C9          -1.9880     0.9010     1.0310 c3         1 TPV      -0.071400
     10 C10         -2.5780    -0.5030     1.1730 c3         1 TPV      -0.088400
     11 C11         -4.1050    -0.4220     1.1330 c3         1 TPV      -0.092100
     12 C12          0.1280     2.2240     0.9280 c3         1 TPV      -0.116400
     13 C13         -0.3120     2.8290    -0.4060 c3         1 TPV      -0.037100
     14 C14          0.3480     4.1720    -0.5900 ca         1 TPV      -0.085300
     15 C15          1.5150     4.2730    -1.3230 ca         1 TPV      -0.124000
     16 C16          2.1200     5.5050    -1.4930 ca         1 TPV      -0.127000
     17 C17          1.5560     6.6340    -0.9300 ca         1 TPV      -0.130000
     18 C18          0.3880     6.5320    -0.1970 ca         1 TPV      -0.127000
     19 C19         -0.2190     5.3010    -0.0310 ca         1 TPV      -0.124000
     20 C20          3.6040    -0.1080     1.1160 c3         1 TPV       0.047800
     21 C21          4.1530     0.9960     0.2120 c3         1 TPV      -0.089400
     22 C22          3.9910     2.3500     0.9050 c3         1 TPV      -0.095100
     23 C23          3.9850    -1.4540     0.5540 ca         1 TPV      -0.057300
     24 C24          3.9270    -1.6720    -0.8090 ca         1 TPV      -0.138000
     25 C25          4.2750    -2.9050    -1.3300 ca         1 TPV      -0.090000
     26 C26          4.6830    -3.9210    -0.4880 ca         1 TPV      -0.194000
     27 C27          4.7420    -3.7040     0.8810 ca         1 TPV       0.146600
     28 N28          5.1540    -4.7300     1.7350 nu         1 TPV      -0.756500
     29 C29          4.3960    -2.4630     1.4000 ca         1 TPV      -0.162000
     30 S30          5.5710    -6.2070     1.1140 sy         1 TPV       1.353800
     31 O31          6.1000    -6.9490     2.2040 o          1 TPV      -0.609800
     32 O32          4.4770    -6.6070     0.3010 o          1 TPV      -0.609800
     33 C33          6.9210    -5.9520     0.0100 ca         1 TPV       0.215200
     34 N34          6.6840    -5.7070    -1.2640 nb         1 TPV      -0.598000
     35 C35          7.6610    -5.5060    -2.1240 ca         1 TPV       0.445200
     36 C36          8.9810    -5.5540    -1.7190 ca         1 TPV      -0.258600
     37 C37          9.2700    -5.8140    -0.3890 ca         1 TPV      -0.060000
     38 C38          8.2160    -6.0160     0.4880 ca         1 TPV      -0.164300
     39 C39         10.0930    -5.3270    -2.7120 c3         1 TPV       0.675200
     40 F40          9.5470    -5.0880    -3.9770 f          1 TPV      -0.216967
     41 F41         10.8530    -4.2230    -2.3150 f          1 TPV      -0.216967
     42 F42         10.9100    -6.4630    -2.7630 f          1 TPV      -0.216967
     43 H51         -0.3230     0.8550     3.2210 hc         1 TPV       0.078200
     44 H52         -0.4570    -0.7720     2.5230 hc         1 TPV       0.078200
     45 HO81         1.7430    -0.4130     4.1830 ho         1 TPV       0.428000
     46 H91         -2.3020     1.3310     0.0870 hc         1 TPV       0.060200
     47 H92         -2.3380     1.5240     1.8450 hc         1 TPV       0.060200
     48 H101        -2.2640    -0.9320     2.1170 hc         1 TPV       0.049700
     49 H102        -2.2280    -1.1260     0.3590 hc         1 TPV       0.049700
     50 H111        -4.4540     0.2200     1.9330 hc         1 TPV       0.035367
     51 H112        -4.4200    -0.0140     0.1800 hc         1 TPV       0.035367
     52 H113        -4.5220    -1.4140     1.2570 hc         1 TPV       0.035367
     53 H121        -0.2230     2.8480     1.7410 hc         1 TPV       0.064200
     54 H122         1.2100     2.1670     0.9590 hc         1 TPV       0.064200
     55 H131        -1.3880     2.9520    -0.4090 hc         1 TPV       0.061200
     56 H132        -0.0210     2.1700    -1.2150 hc         1 TPV       0.061200
     57 H151         1.9570     3.3880    -1.7640 ha         1 TPV       0.132500
     58 H161         3.0350     5.5840    -2.0670 ha         1 TPV       0.129500
     59 H171         2.0310     7.5990    -1.0610 ha         1 TPV       0.128000
     60 H181        -0.0550     7.4180     0.2420 ha         1 TPV       0.129500
     61 H191        -1.1340     5.2220     0.5430 ha         1 TPV       0.132500
     62 H201         4.0200    -0.0010     2.1110 hc         1 TPV       0.072700
     63 H211         3.6060     1.0020    -0.7230 hc         1 TPV       0.061700
     64 H212         5.2020     0.8140     0.0160 hc         1 TPV       0.061700
     65 H221         3.9800     3.1380     0.1620 hc         1 TPV       0.033367
     66 H222         4.8180     2.5080     1.5870 hc         1 TPV       0.033367
     67 H223         3.0600     2.3640     1.4590 hc         1 TPV       0.033367
     68 H241         3.6070    -0.8770    -1.4710 ha         1 TPV       0.171000
     69 H251         4.2280    -3.0730    -2.3990 ha         1 TPV       0.138000
     70 H261         4.9560    -4.8870    -0.8960 ha         1 TPV       0.176000
     71 H281         5.1650    -4.5830     2.7240 hn         1 TPV       0.462800
     72 H291         4.4410    -2.2900     2.4680 ha         1 TPV       0.127000
     73 H351         7.4270    -5.3050    -3.1620 h4         1 TPV       0.051100
     74 H371        10.2950    -5.8580    -0.0420 ha         1 TPV       0.160000
     75 H381         8.4050    -6.2210     1.5350 ha         1 TPV       0.169000
@<TRIPOS>BOND
     1     1     2 1
     2     1     6 1
     3     2     3 1
     4     2     7 2
     5     3     4 2
     6     3    20 1
     7     4     5 1
     8     4     8 1
     9     5     6 1
    10     5    43 1
    11     5    44 1
    12     6     9 1
    13     6    12 1
    14     8    45 1
    15     9    10 1
    16     9    46 1
    17     9    47 1
    18    10    11 1
    19    10    48 1
    20    10    49 1
    21    11    50 1
    22    11    51 1
    23    11    52 1
    24    12    13 1
    25    12    53 1
    26    12    54 1
    27    13    14 1
    28    13    55 1
    29    13    56 1
    30    14    15 ar
    31    14    19 ar
    32    15    16 ar
    33    15    57 1
    34    16    17 ar
    35    16    58 1
    36    17    18 ar
    37    17    59 1
    38    18    19 ar
    39    18    60 1
    40    19    61 1
    41    20    21 1
    42    20    23 1
    43    20    62 1
    44    21    22 1
    45    21    63 1
    46    21    64 1
    47    22    65 1
    48    22    66 1
    49    22    67 1
    50    23    24 ar
    51    23    29 ar
    52    24    25 ar
    53    24    68 1
    54    25    26 ar
    55    25    69 1
    56    26    27 ar
    57    26    70 1
    58    27    28 1
    59    27    29 ar
    60    28    30 1
    61    28    71 1
    62    29    72 1
    63    30    31 2
    64    30    32 2
    65    30    33 1
    66    33    34 ar
    67    33    38 ar
    68    34    35 ar
    69    35    36 ar
    70    35    73 1
    71    36    37 ar
    72    36    39 1
    73    37    38 ar
    74    37    74 1
    75    38    75 1
    76    39    40 1
    77    39    41 1
    78    39    42 1
@<TRIPOS>SUBSTRUCTURE
     1 TPV         1 TEMP              0 ****  ****    0 ROOT
