@<TRIPOS>MOLECULE
TPW
   42    44     1     0     0
SMALL
bcc


@<TRIPOS>ATOM
      1 C2A         0.3460   -0.9550   -0.9060 c3        1 TPW     -0.117400
      2 C35         5.5970    0.6850    0.7010 c3        1 TPW      0.076100
      3 C2          5.4500    2.3350    2.6300 c2        1 TPW     -0.418300
      4 S1          5.8470    2.4590    4.1830 s4        1 TPW      0.378400
      5 C5          6.3500    0.9090    4.3590 c2        1 TPW     -0.298500
      6 C4          6.2130    0.1940    3.1400 ce        1 TPW     -0.115200
      7 C4A         6.6110   -1.2110    2.9720 c3        1 TPW      0.007100
      8 C5A         7.0110    0.3990    5.5690 c3        1 TPW      0.016800
      9 C5B         8.3300    1.1260    5.8910 c3        1 TPW      0.196400
     10 O5G         8.1410    2.2690    6.6580 os        1 TPW     -0.586200
     11 P1          8.3150    3.7240    5.8570 p5        1 TPW      1.781500
     12 O11         8.0040    4.8090    6.8700 os        1 TPW     -0.769800
     13 O12         9.6270    3.6570    5.1820 o         1 TPW     -0.938300
     14 O13         7.1280    3.4900    4.8380 os        1 TPW     -0.708200
     15 P2          7.7080    6.1880    8.0760 p5        1 TPW      1.430900
     16 O21         7.8400    7.3830    7.1830 o         1 TPW     -0.932500
     17 O22         8.8180    5.9770    9.0580 o         1 TPW     -0.932500
     18 O23         6.3290    5.8960    8.5770 o         1 TPW     -0.932500
     19 N1'         1.9530   -0.3180    0.8490 nb        1 TPW     -0.734000
     20 C2'         1.7340   -0.5320   -0.4840 ca        1 TPW      0.616300
     21 N3'         2.6540   -0.3910   -1.4820 nb        1 TPW     -0.781000
     22 C4'         3.9210   -0.0210   -1.1030 ca        1 TPW      0.591200
     23 N4'         4.9310    0.0330   -2.0870 nh        1 TPW     -0.916500
     24 C5'         4.2420    0.2420    0.2690 ca        1 TPW     -0.283900
     25 C6'         3.1940    0.0740    1.1960 ca        1 TPW      0.460200
     26 C3          5.7100    1.0260    2.1280 ce        1 TPW     -0.218200
     27 H2A1        0.3950   -1.9340   -1.4410 hc        1 TPW      0.037700
     28 H2A2       -0.3260   -1.0620   -0.0210 hc        1 TPW      0.037700
     29 H2A3       -0.0870   -0.1890   -1.5940 hc        1 TPW      0.037700
     30 H351        5.8730    1.5950    0.0930 hc        1 TPW      0.024200
     31 H352        6.3290   -0.1300    0.4310 hc        1 TPW      0.024200
     32 H2          5.1000    3.1350    1.9880 h4        1 TPW      0.111000
     33 H5A1        6.3330    0.4980    6.4590 hc        1 TPW      0.001700
     34 H5A2        7.2430   -0.6940    5.4490 hc        1 TPW      0.001700
     35 H4A1        6.1460   -1.8510    3.7650 hc        1 TPW     -0.002633
     36 H4A2        7.7220   -1.3200    3.0580 hc        1 TPW     -0.002633
     37 H4A3        6.2980   -1.6170    1.9770 hc        1 TPW     -0.002633
     38 H5B1        8.8770    1.3820    4.9410 h1        1 TPW      0.002700
     39 H5B2        8.9710    0.4170    6.4950 h1        1 TPW      0.002700
     40 H6'         3.3920    0.2850    2.2710 h4        1 TPW      0.087100
     41 H4'1        5.6790    0.6410   -1.8230 hn        1 TPW      0.385300
     42 H4'2        4.5990    0.2130   -3.0100 hn        1 TPW      0.385300
@<TRIPOS>BOND
     1    1   20 1
     2    1   27 1
     3    1   28 1
     4    1   29 1
     5    2   24 1
     6    2   26 1
     7    2   30 1
     8    2   31 1
     9    3    4 1
    10    3   26 2
    11    3   32 1
    12    4    5 1
    13    4   14 1
    14    5    6 2
    15    5    8 1
    16    6    7 1
    17    6   26 1
    18    7   35 1
    19    7   36 1
    20    7   37 1
    21    8    9 1
    22    8   33 1
    23    8   34 1
    24    9   10 1
    25    9   38 1
    26    9   39 1
    27   10   11 1
    28   11   12 1
    29   11   13 2
    30   11   14 1
    31   12   15 1
    32   15   16 1
    33   15   17 1
    34   15   18 1
    35   19   20 ar
    36   19   25 ar
    37   20   21 ar
    38   21   22 ar
    39   22   23 1
    40   22   24 ar
    41   23   41 1
    42   23   42 1
    43   24   25 ar
    44   25   40 1
@<TRIPOS>SUBSTRUCTURE
     1 TPW         1 TEMP              0 ****  ****    0 ROOT
