@<TRIPOS>MOLECULE
molecule
   39    39     1     0     0
SMALL
bcc


@<TRIPOS>ATOM
      1 C            0.0000     0.0000     0.0000 c          1 TPX       0.575900
      2 CA           1.5070     0.0000     0.0000 c3         1 TPX      -0.159700
      3 CB           2.0170     0.0000     1.4420 c3         1 TPX      -0.176700
      4 CC           3.5240     0.0000     1.4420 c          1 TPX       0.899600
      5 CD           2.0170     1.2480    -0.7230 c3         1 TPX      -0.081400
      6 CE           1.5070     1.2460    -2.1650 c3         1 TPX      -0.096100
      7 O           -0.6040    -0.9060    -0.5220 o          1 TPX      -0.563100
      8 OA           4.1950     0.0020     2.6030 o          1 TPX      -0.836800
      9 OB           4.1280    -0.0000     0.3960 o          1 TPX      -0.836800
     10 CK           1.5070    -1.2480     2.1640 c3         1 TPX       0.256800
     11 N            1.9960    -1.2460     3.5450 n7         1 TPX      -0.888100
     12 OC           2.3560    -2.2760     5.7470 o          1 TPX      -0.662800
     13 OD           0.1800    -2.5930     4.5080 o          1 TPX      -0.662800
     14 S            1.5960    -2.4870     4.5650 sy         1 TPX       1.423200
     15 CF           2.2170    -3.9750     3.8550 ca         1 TPX      -0.301500
     16 CG1          3.4920    -4.4080     4.1630 ca         1 TPX      -0.016500
     17 CG2          1.4250    -4.7110     2.9940 ca         1 TPX      -0.016500
     18 CH1          3.9790    -5.5750     3.6060 ca         1 TPX      -0.158000
     19 CH2          1.9130    -5.8760     2.4330 ca         1 TPX      -0.158000
     20 CI           3.1900    -6.3090     2.7410 ca         1 TPX      -0.042300
     21 CJ           3.7200    -7.5820     2.1320 c3         1 TPX      -0.051800
     22 H           -0.5420     0.8180     0.4590 h4         1 TPX      -0.024800
     23 HA           1.8680    -0.8850    -0.5100 hc         1 TPX       0.086700
     24 HB           1.6560     0.8850     1.9520 hc         1 TPX       0.049700
     25 HD2          1.6550     2.1330    -0.2130 hc         1 TPX       0.069700
     26 HD1          3.1000     1.2490    -0.7230 hc         1 TPX       0.069700
     27 HE3          1.6430     0.2610    -2.5950 hc         1 TPX       0.022700
     28 HE2          2.0620     1.9730    -2.7450 hc         1 TPX       0.022700
     29 HE1          0.4540     1.5030    -2.1770 hc         1 TPX       0.022700
     30 HK2          0.4240    -1.2480     2.1650 h1         1 TPX       0.028700
     31 HK1          1.8680    -2.1330     1.6540 h1         1 TPX       0.028700
     32 HN1          2.5210    -0.4660     3.8890 hn         1 TPX       0.496800
     33 HG1          4.1100    -3.8330     4.8410 ha         1 TPX       0.153500
     34 HG2          0.4250    -4.3720     2.7530 ha         1 TPX       0.153500
     35 HH1          4.9790    -5.9150     3.8480 ha         1 TPX       0.126000
     36 HH2          1.2940    -6.4520     1.7570 ha         1 TPX       0.126000
     37 HJ3          3.0850    -7.8790     1.3060 hc         1 TPX       0.040367
     38 HJ2          3.7300    -8.3640     2.8810 hc         1 TPX       0.040367
     39 HJ1          4.7280    -7.4160     1.7700 hc         1 TPX       0.040367
@<TRIPOS>BOND
     1     1     2 1
     2     1     7 2
     3     1    22 1
     4     2     3 1
     5     2     5 1
     6     2    23 1
     7     3     4 1
     8     3    10 1
     9     3    24 1
    10     4     8 1
    11     4     9 1
    12     5     6 1
    13     5    25 1
    14     5    26 1
    15     6    27 1
    16     6    28 1
    17     6    29 1
    18    10    11 1
    19    10    30 1
    20    10    31 1
    21    11    14 1
    22    11    32 1
    23    12    14 2
    24    13    14 2
    25    14    15 1
    26    15    16 ar
    27    15    17 ar
    28    16    18 ar
    29    16    33 1
    30    17    19 ar
    31    17    34 1
    32    18    20 ar
    33    18    35 1
    34    19    20 ar
    35    19    36 1
    36    20    21 1
    37    21    37 1
    38    21    38 1
    39    21    39 1
@<TRIPOS>SUBSTRUCTURE
     1 TPX         1 TEMP              0 ****  ****    0 ROOT
