@<TRIPOS>MOLECULE
molecule
   38    38     1     0     0
SMALL
bcc


@<TRIPOS>ATOM
      1 C            0.0000     0.0000     0.0000 c          1 TPY       0.573900
      2 CA           1.5080     0.0000     0.0000 c3         1 TPY      -0.160700
      3 CB           2.0170     0.0000     1.4430 c3         1 TPY      -0.175700
      4 CC           3.5240    -0.0010     1.4430 c          1 TPY       0.897600
      5 CD           2.0180     1.2490    -0.7210 c3         1 TPY      -0.082400
      6 CE           1.6130     1.1870    -2.1960 c3         1 TPY      -0.094100
      7 O           -0.6040    -0.9050    -0.5230 o          1 TPY      -0.561100
      8 OA           4.1950    -0.0020     2.6050 o          1 TPY      -0.834800
      9 OB           4.1290    -0.0020     0.3970 o          1 TPY      -0.834800
     10 OC           1.8070    -1.9310     5.9180 o          1 TPY      -0.648800
     11 OD          -0.2190    -2.0990     4.4220 o          1 TPY      -0.648800
     12 S            1.1750    -2.2000     4.6740 sy         1 TPY       1.409200
     13 CK           1.5060    -1.2490     2.1640 c3         1 TPY       0.252800
     14 CF           1.6330    -3.8490     4.2520 ca         1 TPY      -0.260500
     15 CG1          2.7740    -4.4100     4.7940 ca         1 TPY      -0.030500
     16 CG2          0.8470    -4.5830     3.3830 ca         1 TPY      -0.030500
     17 CH1          3.1330    -5.7030     4.4630 ca         1 TPY      -0.099500
     18 CH2          1.2090    -5.8740     3.0480 ca         1 TPY      -0.099500
     19 CI           2.3510    -6.4350     3.5900 ca         1 TPY      -0.116200
     20 NJ           2.7360    -7.8190     3.2340 no         1 TPY       0.290200
     21 OE           3.7420    -8.3130     3.7110 o          1 TPY      -0.212500
     22 OF           2.0460    -8.4650     2.4650 o          1 TPY      -0.212500
     23 H           -0.5420     0.8170     0.4610 h4         1 TPY      -0.021800
     24 HA           1.8680    -0.8850    -0.5100 hc         1 TPY       0.086700
     25 HB           1.6570     0.8850     1.9530 hc         1 TPY       0.053700
     26 HD2          3.0980     1.2930    -0.6450 hc         1 TPY       0.069700
     27 HD1          1.5870     2.1310    -0.2650 hc         1 TPY       0.069700
     28 HE3          2.2020     1.8990    -2.7620 hc         1 TPY       0.024033
     29 HE2          1.7890     0.1890    -2.5770 hc         1 TPY       0.024033
     30 HE1          0.5620     1.4310    -2.2920 hc         1 TPY       0.024033
     31 HN1          2.5730    -0.5230     3.8810 hn         1 TPY       0.506800
     32 HK2          1.9360    -2.1320     1.7080 h1         1 TPY       0.031200
     33 HK1          0.4260    -1.2920     2.0880 h1         1 TPY       0.031200
     34 HG1          3.3870    -3.8360     5.4780 ha         1 TPY       0.170500
     35 HG2         -0.0470    -4.1430     2.9590 ha         1 TPY       0.170500
     36 HH1          4.0280    -6.1430     4.8870 ha         1 TPY       0.163000
     37 HH2          0.5940    -6.4490     2.3650 ha         1 TPY       0.163000
     38 N            1.8930    -1.1900     3.5760 n7         1 TPY      -0.888100
@<TRIPOS>BOND
     1     1     2 1
     2     1     7 2
     3     1    23 1
     4     2     3 1
     5     2     5 1
     6     2    24 1
     7     3     4 1
     8     3    13 1
     9     3    25 1
    10     4     8 1
    11     4     9 1
    12     5     6 1
    13     5    26 1
    14     5    27 1
    15     6    28 1
    16     6    29 1
    17     6    30 1
    18    10    12 2
    19    11    12 2
    20    12    38 1
    21    12    14 1
    22    38    13 1
    23    38    31 1
    24    13    32 1
    25    13    33 1
    26    14    15 ar
    27    14    16 ar
    28    15    17 ar
    29    15    34 1
    30    16    18 ar
    31    16    35 1
    32    17    19 ar
    33    17    36 1
    34    18    19 ar
    35    18    37 1
    36    19    20 1
    37    20    21 1
    38    20    22 1
@<TRIPOS>SUBSTRUCTURE
     1 TPY         1 TEMP              0 ****  ****    0 ROOT
