@<TRIPOS>MOLECULE
TPZ
   35    34     1     0     0
SMALL
bcc


@<TRIPOS>ATOM
      1 C           1.1110   -1.3130   -1.1180 c         1 TPZ      0.906600
      2 N           2.4440    0.7860   -1.0420 n         1 TPZ     -0.489900
      3 O           1.2530   -2.5630   -0.9890 o         1 TPZ     -0.852300
      4 P           1.4770    2.3350    2.1820 p5        1 TPZ      1.427800
      5 C1          3.6510    1.0260   -1.6110 c         1 TPZ      0.655100
      6 O1          4.6520    0.2710   -1.5310 o         1 TPZ     -0.682100
      7 C2          3.7820    2.3330   -2.3990 c3        1 TPZ     -0.158400
      8 C3          2.8840    2.3250   -3.6140 c3        1 TPZ     -0.079400
      9 C4          3.1440    3.5290   -4.4990 c3        1 TPZ     -0.072400
     10 C5          2.1620    3.5570   -5.6420 c3        1 TPZ      0.030700
     11 S5          2.6210    4.8840   -6.7370 sh        1 TPZ     -0.427900
     12 CA          2.0770   -0.3940   -0.2900 c3        1 TPZ     -0.036300
     13 CB          1.3810   -0.0230    1.0560 c3        1 TPZ      0.198100
     14 CG          1.2110   -1.2910    1.8830 c3        1 TPZ     -0.106100
     15 O1P         0.0560    2.1610    2.5460 o         1 TPZ     -0.848000
     16 O2P         1.5830    3.0370    0.7000 oh        1 TPZ     -0.783400
     17 O3P         2.4740    3.0790    2.9860 o         1 TPZ     -0.848000
     18 O4P         2.1530    0.8940    1.7870 os        1 TPZ     -0.589200
     19 OXT         0.2490   -0.7840   -1.8770 o         1 TPZ     -0.852300
     20 HN          1.7080    1.4460   -1.1710 hn        1 TPZ      0.325500
     21 H2          4.8540    2.4370   -2.7090 hc        1 TPZ      0.051700
     22 H2A         3.5280    3.1980   -1.7320 hc        1 TPZ      0.051700
     23 H3          3.0550    1.3830   -4.2000 hc        1 TPZ      0.061700
     24 H3A         1.8070    2.3220   -3.2940 hc        1 TPZ      0.061700
     25 H4          4.1930    3.4870   -4.8960 hc        1 TPZ      0.047700
     26 H4A         3.0510    4.4690   -3.8930 hc        1 TPZ      0.047700
     27 H5          1.1250    3.7170   -5.2590 h1        1 TPZ      0.065200
     28 H5A         2.1820    2.5890   -6.1980 h1        1 TPZ      0.065200
     29 HS5         1.5950    4.8300   -7.5640 hs        1 TPZ      0.187800
     30 HA          3.0130   -0.9760   -0.0620 h1        1 TPZ      0.075700
     31 HB          0.3710    0.4330    0.8360 h1        1 TPZ      0.053700
     32 HG          0.7810   -2.1020    1.2470 hc        1 TPZ      0.033367
     33 HGA         0.5340   -1.0930    2.7470 hc        1 TPZ      0.033367
     34 HGB         2.2020   -1.6220    2.2760 hc        1 TPZ      0.033367
     35 H21         2.4600    3.3640    0.5390 ho        1 TPZ      0.414000
@<TRIPOS>BOND
     1    1    3 1   
     2    1   12 1   
     3    1   19 1   
     4    2    5 1   
     5    2   12 1   
     6    2   20 1   
     7    4   15 1   
     8    4   16 1   
     9    4   17 1   
    10    4   18 1   
    11    5    6 2   
    12    5    7 1   
    13    7    8 1   
    14    7   21 1   
    15    7   22 1   
    16    8    9 1   
    17    8   23 1   
    18    8   24 1   
    19    9   10 1   
    20    9   25 1   
    21    9   26 1   
    22   10   11 1   
    23   10   27 1   
    24   10   28 1   
    25   11   29 1   
    26   12   13 1   
    27   12   30 1   
    28   13   14 1   
    29   13   18 1   
    30   13   31 1   
    31   14   32 1   
    32   14   33 1   
    33   14   34 1   
    34   16   35 1   
@<TRIPOS>SUBSTRUCTURE
     1 TPZ         1 TEMP              0 ****  ****    0 ROOT
