@<TRIPOS>MOLECULE
molecule
   34    33     1     0     0
SMALL
bcc


@<TRIPOS>ATOM
      1 C            0.0000     0.0000     0.0000 c          1 TPZ       0.908600
      2 N            1.9960     1.1960    -0.6910 ns         1 TPZ      -0.489900
      3 O           -0.6040     0.9090    -0.5180 o          1 TPZ      -0.834300
      4 P            0.5300     0.9260     3.4590 p5         1 TPZ       1.194900
      5 C1           2.1240     1.1940    -2.0330 c          1 TPZ       0.640100
      6 O1           1.8350     0.2030    -2.6680 o          1 TPZ      -0.677100
      7 C2           2.6260     2.4250    -2.7430 c3         1 TPZ      -0.162400
      8 C3           2.6780     2.1590    -4.2490 c3         1 TPZ      -0.060400
      9 C4           3.1870     3.4080    -4.9700 c3         1 TPZ      -0.072400
     10 C5           3.2370     3.1420    -6.4760 c3         1 TPZ       0.054700
     11 S5           3.8420     4.6230    -7.3320 sh         1 TPZ      -0.517900
     12 CA           1.5080     0.0000     0.0000 c3         1 TPZ      -0.015300
     13 CB           2.0180     0.0000     1.4420 c3         1 TPZ       0.234100
     14 CG           3.5430     0.1250     1.4440 c3         1 TPZ      -0.114100
     15 O1P          0.1740     2.3740     4.0650 o          1 TPZ      -0.885833
     16 O2P          1.2630     0.1340     4.4720 o          1 TPZ      -0.885833
     17 O3P         -0.8290     0.1600     3.0620 o          1 TPZ      -0.885833
     18 O4P          1.4480     1.1030     2.1490 os         1 TPZ      -0.575200
     19 OXT         -0.6710    -1.0070     0.5820 o          1 TPZ      -0.834300
     20 HN           2.2050     2.0240    -0.1690 hn         1 TPZ       0.317500
     21 H2           3.6190     2.6680    -2.3850 hc         1 TPZ       0.043700
     22 H2A          1.9570     3.2540    -2.5450 hc         1 TPZ       0.043700
     23 H3           1.6840     1.9160    -4.6070 hc         1 TPZ       0.052200
     24 H3A          3.3460     1.3300    -4.4470 hc         1 TPZ       0.052200
     25 H4           4.1810     3.6510    -4.6130 hc         1 TPZ       0.045200
     26 H4A          2.5200     4.2380    -4.7720 hc         1 TPZ       0.045200
     27 H5           2.2440     2.9000    -6.8330 h1         1 TPZ       0.047200
     28 H5A          3.9050     2.3130    -6.6740 h1         1 TPZ       0.047200
     29 HS5          3.8920     4.3900    -8.6370 hs         1 TPZ       0.167800
     30 HA           1.8680    -0.8850    -0.5110 h1         1 TPZ       0.032700
     31 HB           1.7310    -0.9260     1.9260 h1         1 TPZ       0.069700
     32 HG           3.9500    -0.4300     2.2810 hc         1 TPZ       0.004033
     33 HGA          3.8200     1.1680     1.5330 hc         1 TPZ       0.004033
     34 HGB          3.9390    -0.2760     0.5190 hc         1 TPZ       0.004033
@<TRIPOS>BOND
     1    12     1 1
     2     3     1 1
     3     1    19 1
     4     5     2 1
     5     2    12 1
     6     2    20 1
     7    16     4 1
     8    17     4 1
     9    18     4 1
    10     4    15 1
    11     7     5 1
    12     5     6 2
    13     7     8 1
    14     7    21 1
    15     7    22 1
    16     9     8 1
    17     8    23 1
    18     8    24 1
    19    10     9 1
    20     9    25 1
    21     9    26 1
    22    11    10 1
    23    10    27 1
    24    10    28 1
    25    11    29 1
    26    13    12 1
    27    12    30 1
    28    14    13 1
    29    18    13 1
    30    13    31 1
    31    14    32 1
    32    14    33 1
    33    14    34 1
@<TRIPOS>SUBSTRUCTURE
     1 TPZ         1 TEMP              0 ****  ****    0 ROOT
