@<TRIPOS>MOLECULE
molecule
   33    36     1     0     0
SMALL
bcc


@<TRIPOS>ATOM
      1 C1           0.0000     0.0000     0.0000 cc         1 TQ1      -0.211000
      2 C7           4.2580    -0.0010     0.8520 ca         1 TQ1      -0.132000
      3 C8           5.5540     0.0000     1.2800 ca         1 TQ1      -0.090000
      4 C2           1.4040     0.0000     0.0000 cc         1 TQ1      -0.172000
      5 C19          3.4780     0.0010     3.1450 ca         1 TQ1      -0.159000
      6 C5          -0.4110     0.0000     1.2880 cd         1 TQ1      -0.142300
      7 C6           3.2080    -0.0000     1.7770 ca         1 TQ1       0.039000
      8 C9           5.8400    -0.0000     2.6520 ca         1 TQ1      -0.091000
      9 C18          4.7920     0.0010     3.5870 ca         1 TQ1       0.088700
     10 C3           1.8090     0.0000     1.3020 cd         1 TQ1      -0.090300
     11 C11          7.4850     0.0010     4.4420 cc         1 TQ1      -0.090000
     12 C10          7.2300    -0.0000     3.1160 cd         1 TQ1      -0.046300
     13 C12          6.3760     0.0010     5.3990 cc         1 TQ1       0.010700
     14 C15          4.2520     0.0000     6.0260 c          1 TQ1       0.661300
     15 C20          8.3640    -0.0010     2.1250 c3         1 TQ1       0.189700
     16 N13          6.3630     0.0020     6.7110 nd         1 TQ1      -0.201600
     17 N4           0.6880     0.0000     2.0930 na         1 TQ1      -0.149100
     18 N14          5.0260     0.0000     7.1300 ns         1 TQ1      -0.316900
     19 N17          5.0680     0.0010     4.9500 n          1 TQ1      -0.116200
     20 O16          3.0350    -0.0020     6.0030 o          1 TQ1      -0.664500
     21 O21          9.6100     0.0000     2.8240 oh         1 TQ1      -0.610800
     22 H1          -0.6390     0.0000    -0.8750 ha         1 TQ1       0.150000
     23 H2           2.0460     0.0000    -0.8730 ha         1 TQ1       0.148000
     24 H5          -1.4410    -0.0000     1.6230 h4         1 TQ1       0.168000
     25 H8           6.3620    -0.0010     0.5590 ha         1 TQ1       0.136000
     26 H19          2.6640     0.0020     3.8600 ha         1 TQ1       0.170000
     27 H4           0.6790    -0.0000     3.0930 hn         1 TQ1       0.305700
     28 H11          8.5070     0.0640     4.7970 ha         1 TQ1       0.185000
     29 H201         8.3000    -0.8860     1.5030 h1         1 TQ1       0.039700
     30 H202         8.3000     0.8830     1.5010 h1         1 TQ1       0.039700
     31 H14          4.7040    -0.0010     8.0770 hn         1 TQ1       0.397500
     32 H21         10.3200    -0.0070     2.2030 ho         1 TQ1       0.412000
     33 H7           4.0420    -0.0020    -0.2100 ha         1 TQ1       0.143000
@<TRIPOS>BOND
     1     1     4 1
     2     1     6 2
     3     2     3 ar
     4     2     7 ar
     5     3     8 ar
     6     4    10 2
     7     5     7 ar
     8     5     9 ar
     9     6    17 1
    10     7    10 1
    11     8     9 ar
    12     8    12 1
    13     9    19 1
    14    10    17 1
    15    11    12 2
    16    11    13 1
    17    12    15 1
    18    13    16 2
    19    13    19 1
    20    14    18 1
    21    14    19 1
    22    14    20 2
    23    15    21 1
    24    16    18 1
    25     1    22 1
    26     4    23 1
    27     6    24 1
    28     2    33 1
    29     3    25 1
    30     5    26 1
    31    17    27 1
    32    11    28 1
    33    15    29 1
    34    15    30 1
    35    18    31 1
    36    21    32 1
@<TRIPOS>SUBSTRUCTURE
     1 TQ1         1 TEMP              0 ****  ****    0 ROOT
