@<TRIPOS>MOLECULE
TQ1
   33    36     1     0     0
SMALL
bcc


@<TRIPOS>ATOM
      1 C1           0.0000     0.0000     0.0000 cc         1 TQ1      -0.175000
      2 C7           4.2580    -0.0010     0.8520 ca         1 TQ1      -0.105000
      3 C8           5.5540     0.0000     1.2800 ca         1 TQ1      -0.068000
      4 C2           1.4040     0.0000     0.0000 cc         1 TQ1      -0.149000
      5 C19          3.4780     0.0010     3.1450 ca         1 TQ1      -0.151000
      6 C5          -0.4110     0.0000     1.2880 cd         1 TQ1      -0.326300
      7 C6           3.2080    -0.0000     1.7770 ca         1 TQ1       0.061000
      8 C9           5.8400    -0.0000     2.6520 ca         1 TQ1      -0.076000
      9 C18          4.7920     0.0010     3.5870 ca         1 TQ1      -0.072300
     10 C3           1.8090     0.0000     1.3020 cd         1 TQ1      -0.290300
     11 C11          7.4850     0.0010     4.4420 cc         1 TQ1      -0.062000
     12 C10          7.2300    -0.0000     3.1160 cd         1 TQ1      -0.068300
     13 C12          6.3760     0.0010     5.3990 cc         1 TQ1      -0.120300
     14 C15          4.2520     0.0000     6.0260 c          1 TQ1       0.425300
     15 C20          8.3640    -0.0010     2.1250 c3         1 TQ1       0.283700
     16 N13          6.3630     0.0020     6.7110 nd         1 TQ1      -0.330600
     17 N4           0.6880     0.0000     2.0930 na         1 TQ1       0.420900
     18 N14          5.0260     0.0000     7.1300 ns         1 TQ1       0.108100
     19 N17          5.0680     0.0010     4.9500 n          1 TQ1       0.345800
     20 O16          3.0350    -0.0020     6.0030 o          1 TQ1      -0.721500
     21 O21          9.6100     0.0000     2.8240 oh         1 TQ1      -0.592800
     22 H1          -0.6390     0.0000    -0.8750 ha         1 TQ1       0.125000
     23 H2           2.0460     0.0000    -0.8730 ha         1 TQ1       0.126000
     24 H5          -1.4410    -0.0000     1.6230 h4         1 TQ1       0.144000
     25 H8           6.3620    -0.0010     0.5590 ha         1 TQ1       0.110000
     26 H19          2.6640     0.0020     3.8600 ha         1 TQ1       0.152000
     27 H4           0.6790    -0.0000     3.0930 hn         1 TQ1       0.119700
     28 H11          8.5070     0.0640     4.7970 ha         1 TQ1       0.150000
     29 H201         8.3000    -0.8860     1.5030 h1         1 TQ1      -0.000800
     30 H202         8.3000     0.8830     1.5010 h1         1 TQ1      -0.000800
     31 H14          4.7040    -0.0010     8.0770 hn         1 TQ1       0.224500
     32 H21         10.3200    -0.0070     2.2030 ho         1 TQ1       0.397000
     33 H7           4.0420    -0.0020    -0.2100 ha         1 TQ1       0.118000
@<TRIPOS>BOND
     1     1     4 1   
     2     1     6 2   
     3     1    22 1   
     4     2     3 ar  
     5     2     7 ar  
     6     2    33 1   
     7     3     8 ar  
     8     3    25 1   
     9     4    10 2   
    10     4    23 1   
    11     5     7 ar  
    12     5     9 ar  
    13     5    26 1   
    14     6    17 1   
    15     6    24 1   
    16     7    10 1   
    17     8     9 ar  
    18     8    12 1   
    19     9    19 1   
    20    10    17 1   
    21    11    12 2   
    22    11    13 1   
    23    11    28 1   
    24    12    15 1   
    25    13    16 2   
    26    13    19 1   
    27    14    18 1   
    28    14    19 1   
    29    14    20 2   
    30    15    21 1   
    31    15    29 1   
    32    15    30 1   
    33    16    18 1   
    34    17    27 1   
    35    18    31 1   
    36    21    32 1   
@<TRIPOS>SUBSTRUCTURE
     1 TQ1         1 TEMP              0 ****  ****    0 ROOT
