@<TRIPOS>MOLECULE
TQ2
   54    56     1     0     0
SMALL
bcc


@<TRIPOS>ATOM
      1 C01        -0.1190    0.3520    0.0040 ca        1 TQ2     -0.173300
      2 C02         1.3120    0.2720    0.0150 ca        1 TQ2      0.398600
      3 C03         1.9840    0.1900    1.2690 ca        1 TQ2     -0.139300
      4 C04         1.2150    0.1710    2.4610 ca        1 TQ2     -0.103000
      5 C05        -0.1560    0.2460    2.4200 ca        1 TQ2     -0.159000
      6 C06        -0.8260    0.3410    1.1800 ca        1 TQ2     -0.144000
      7 N07         1.9960    0.2820   -1.1810 nb        1 TQ2     -0.707000
      8 C08         3.3200    0.1710   -1.1650 ca        1 TQ2      0.484600
      9 C09         4.0950    0.0540    0.0580 ca        1 TQ2     -0.116600
     10 C10         3.4180    0.1110    1.2660 cp        1 TQ2     -0.015000
     11 C11         4.0430    0.1950   -2.4760 c3        1 TQ2     -0.178400
     12 C12         4.1020    0.1130    2.5660 cp        1 TQ2     -0.043000
     13 C13         5.5830   -0.1450    0.0150 c3        1 TQ2      0.044400
     14 O14         6.1240    0.8060   -0.9110 os        1 TQ2     -0.414600
     15 C15         3.9790    1.2220    3.4160 ca        1 TQ2     -0.127000
     16 C16         4.6050    1.2270    4.6580 ca        1 TQ2     -0.151000
     17 C17         5.3640    0.1300    5.0790 ca        1 TQ2     -0.092300
     18 C18         5.5010   -0.9790    4.2280 ca        1 TQ2     -0.084300
     19 C19         4.8710   -0.9810    2.9780 ca        1 TQ2     -0.096000
     20 C20         6.0270    0.1470    6.4040 c3        1 TQ2     -0.042800
     21 C21         6.3160   -2.1480    4.6310 c3        1 TQ2     -0.051800
     22 C22         7.4870    1.1860   -0.6810 c3        1 TQ2      0.164800
     23 C23         7.5840    2.1140    0.5260 c3        1 TQ2     -0.110767
     24 C24         8.4010   -0.0160   -0.5080 c3        1 TQ2     -0.110767
     25 C25         7.8720    1.9530   -1.9480 c3        1 TQ2     -0.110767
     26 C26         5.9610   -1.6180   -0.3640 c         1 TQ2      0.909600
     27 O27         6.1610   -1.9240   -1.5680 o         1 TQ2     -0.821800
     28 O28         6.0830   -2.4240    0.6020 o         1 TQ2     -0.821800
     29 H01        -0.6390    0.4170   -0.9640 ha        1 TQ2      0.135000
     30 H04         1.7380    0.0870    3.4270 ha        1 TQ2      0.138000
     31 H05        -0.7450    0.2280    3.3480 ha        1 TQ2      0.116000
     32 H06        -1.9240    0.4000    1.1690 ha        1 TQ2      0.115000
     33 H11         4.8210   -0.6170   -2.4860 hc        1 TQ2      0.073033
     34 H11A        3.3520    0.0580   -3.3430 hc        1 TQ2      0.073033
     35 H11B        4.5650    1.1790   -2.5800 hc        1 TQ2      0.073033
     36 H13         6.0150    0.0520    1.0380 h1        1 TQ2      0.049700
     37 H15         3.3860    2.0910    3.0940 ha        1 TQ2      0.129000
     38 H16         4.5040    2.1030    5.3150 ha        1 TQ2      0.114000
     39 H19         5.0160   -1.8380    2.2850 ha        1 TQ2      0.213000
     40 H20         5.7790   -0.7830    6.9750 hc        1 TQ2      0.033033
     41 H20A        7.1390    0.1870    6.2770 hc        1 TQ2      0.033033
     42 H20B        5.7090    1.0310    7.0080 hc        1 TQ2      0.033033
     43 H21         6.4710   -2.8430    3.7680 hc        1 TQ2      0.042700
     44 H21A        7.3170   -1.8170    5.0050 hc        1 TQ2      0.042700
     45 H21B        5.8060   -2.7080    5.4560 hc        1 TQ2      0.042700
     46 H23         7.4220    1.5500    1.4740 hc        1 TQ2      0.039478
     47 H23A        8.5960    2.5830    0.5600 hc        1 TQ2      0.039478
     48 H23B        6.8120    2.9160    0.4530 hc        1 TQ2      0.039478
     49 H24         8.2270   -0.7390   -1.3450 hc        1 TQ2      0.039478
     50 H24A        9.4660    0.3130   -0.5030 hc        1 TQ2      0.039478
     51 H24B        8.1750   -0.5470    0.4490 hc        1 TQ2      0.039478
     52 H25         8.9250    2.3070   -1.8650 hc        1 TQ2      0.039478
     53 H25A        7.7730    1.2830   -2.8340 hc        1 TQ2      0.039478
     54 H25B        7.1960    2.8290   -2.0850 hc        1 TQ2      0.039478
@<TRIPOS>BOND
     1    1    2 ar  
     2    1    6 ar  
     3    1   29 1   
     4    2    3 ar  
     5    2    7 ar  
     6    3    4 ar  
     7    3   10 ar  
     8    4    5 ar  
     9    4   30 1   
    10    5    6 ar  
    11    5   31 1   
    12    6   32 1   
    13    7    8 ar  
    14    8    9 ar  
    15    8   11 1   
    16    9   10 ar  
    17    9   13 1   
    18   10   12 1   
    19   11   33 1   
    20   11   34 1   
    21   11   35 1   
    22   12   15 ar  
    23   12   19 ar  
    24   13   14 1   
    25   13   26 1   
    26   13   36 1   
    27   14   22 1   
    28   15   16 ar  
    29   15   37 1   
    30   16   17 ar  
    31   16   38 1   
    32   17   18 ar  
    33   17   20 1   
    34   18   19 ar  
    35   18   21 1   
    36   19   39 1   
    37   20   40 1   
    38   20   41 1   
    39   20   42 1   
    40   21   43 1   
    41   21   44 1   
    42   21   45 1   
    43   22   23 1   
    44   22   24 1   
    45   22   25 1   
    46   23   46 1   
    47   23   47 1   
    48   23   48 1   
    49   24   49 1   
    50   24   50 1   
    51   24   51 1   
    52   25   52 1   
    53   25   53 1   
    54   25   54 1   
    55   26   27 1   
    56   26   28 1   
@<TRIPOS>SUBSTRUCTURE
     1 TQ2         1 TEMP              0 ****  ****    0 ROOT
