@<TRIPOS>MOLECULE
molecule
   31    33     1     0     0
SMALL
bcc


@<TRIPOS>ATOM
      1 C1           0.0000     0.0000     0.0000 ca         1 TQ3       0.469600
      2 C2           1.4160     0.0000     0.0000 ca         1 TQ3      -0.289600
      3 C3           2.0870     0.0000     1.2430 ca         1 TQ3       0.743200
      4 N4           1.3600    -0.0010     2.3520 nb         1 TQ3      -0.778000
      5 C5           0.0300    -0.0010     2.3080 ca         1 TQ3       0.943900
      6 N6          -0.6460    -0.0060     1.1760 nb         1 TQ3      -0.744000
      7 N7           3.4650    -0.0010     1.3030 nv         1 TQ3      -1.065500
      8 C8          -0.6880     0.0020    -1.2190 ca         1 TQ3      -0.193300
      9 C9           0.0070     0.0030    -2.3950 ca         1 TQ3      -0.086000
     10 C12          1.3950     0.0020    -2.4060 ca         1 TQ3      -0.159000
     11 C13          2.1110     0.0000    -1.2210 ca         1 TQ3       0.063900
     12 N14         -0.6720    -0.0010     3.5000 nv         1 TQ3      -1.061500
     13 S20          3.8730    -0.0010    -1.2450 ss         1 TQ3      -0.151800
     14 C22          4.1550     0.1680    -2.9760 ca         1 TQ3      -0.055100
     15 C23          4.1970     1.4290    -3.5560 ca         1 TQ3      -0.079000
     16 C24          4.4200     1.5570    -4.9120 ca         1 TQ3      -0.143500
     17 C25          4.6010     0.4310    -5.6940 ca         1 TQ3      -0.102000
     18 C26          4.5590    -0.8260    -5.1210 ca         1 TQ3      -0.143500
     19 C27          4.3430    -0.9610    -3.7640 ca         1 TQ3      -0.079000
     20 HN71         3.9620     0.8630     1.3990 hn         1 TQ3       0.450300
     21 HN72         3.9650    -0.8680     1.3050 hn         1 TQ3       0.450300
     22 HC8         -1.7710     0.0030    -1.2310 ha         1 TQ3       0.152000
     23 HC9         -0.5330     0.0040    -3.3330 ha         1 TQ3       0.135000
     24 H12          1.9230     0.0030    -3.3520 ha         1 TQ3       0.147000
     25 H141        -0.9320    -0.8670     3.9280 hn         1 TQ3       0.443800
     26 H142        -0.9210     0.8660     3.9340 hn         1 TQ3       0.443800
     27 H23          4.0550     2.3120    -2.9440 ha         1 TQ3       0.143000
     28 H24          4.4530     2.5410    -5.3640 ha         1 TQ3       0.134500
     29 H25          4.7740     0.5350    -6.7580 ha         1 TQ3       0.132000
     30 H26          4.7040    -1.7060    -5.7360 ha         1 TQ3       0.134500
     31 H27          4.3100    -1.9470    -3.3150 ha         1 TQ3       0.143000
@<TRIPOS>BOND
     1     1     2 ar
     2     1     6 ar
     3     1     8 ar
     4     2     3 ar
     5     2    11 ar
     6     3     4 ar
     7     3     7 1
     8     4     5 ar
     9     5     6 ar
    10     5    12 1
    11     7    20 1
    12     7    21 1
    13     8     9 ar
    14     8    22 1
    15     9    10 ar
    16     9    23 1
    17    10    11 ar
    18    10    24 1
    19    11    13 1
    20    12    25 1
    21    12    26 1
    22    13    14 1
    23    14    15 ar
    24    14    19 ar
    25    15    16 ar
    26    15    27 1
    27    16    17 ar
    28    16    28 1
    29    17    18 ar
    30    17    29 1
    31    18    19 ar
    32    18    30 1
    33    19    31 1
@<TRIPOS>SUBSTRUCTURE
     1 TQ3         1 TEMP              0 ****  ****    0 ROOT
