@<TRIPOS>MOLECULE
molecule
   34    36     1     0     0
SMALL
bcc


@<TRIPOS>ATOM
      1 C1           0.0000     0.0000     0.0000 ca         1 TQ4       0.469600
      2 C2           1.4160     0.0000     0.0000 ca         1 TQ4      -0.289600
      3 C3           2.0870     0.0000     1.2430 ca         1 TQ4       0.743200
      4 N4           1.3600    -0.0080     2.3520 nb         1 TQ4      -0.778000
      5 C5           0.0320    -0.0120     2.3100 ca         1 TQ4       0.944900
      6 N6          -0.6450    -0.0090     1.1770 nb         1 TQ4      -0.745000
      7 N7           3.4650     0.0030     1.3020 nv         1 TQ4      -1.065500
      8 C8          -0.6890     0.0050    -1.2180 ca         1 TQ4      -0.194300
      9 C9           0.0060     0.0120    -2.3940 ca         1 TQ4      -0.086000
     10 C12          1.3930     0.0180    -2.4060 ca         1 TQ4      -0.159000
     11 C13          2.1100     0.0140    -1.2220 ca         1 TQ4       0.063900
     12 N14         -0.6700    -0.0200     3.5010 nv         1 TQ4      -1.061500
     13 S20          3.8710     0.0200    -1.2460 ss         1 TQ4      -0.151800
     14 C22          4.1530     0.1980    -2.9760 ca         1 TQ4      -0.061100
     15 C23          4.3660    -0.9260    -3.7660 ca         1 TQ4      -0.074500
     16 C24          4.5870    -0.7820    -5.1210 ca         1 TQ4      -0.144500
     17 C25          4.5970     0.4760    -5.6920 ca         1 TQ4      -0.055300
     18 C26          4.3910     1.5970    -4.9080 ca         1 TQ4      -0.144500
     19 C27          4.1630     1.4600    -3.5540 ca         1 TQ4      -0.074500
     20 C32          4.8380     0.6280    -7.1720 c3         1 TQ4      -0.052800
     21 HN71         3.9600     0.8670     1.4010 hn         1 TQ4       0.449800
     22 HN72         3.9670    -0.8630     1.3010 hn         1 TQ4       0.449800
     23 HC8         -1.7720     0.0000    -1.2280 ha         1 TQ4       0.152000
     24 HC9         -0.5350     0.0150    -3.3320 ha         1 TQ4       0.135000
     25 H12          1.9200     0.0240    -3.3520 ha         1 TQ4       0.148000
     26 H141        -0.9160    -0.8890     3.9310 hn         1 TQ4       0.443800
     27 H142        -0.9340     0.8440     3.9320 hn         1 TQ4       0.443800
     28 H23          4.3580    -1.9130    -3.3190 ha         1 TQ4       0.143000
     29 H24          4.7500    -1.6580    -5.7380 ha         1 TQ4       0.135000
     30 H26          4.4000     2.5820    -5.3590 ha         1 TQ4       0.135000
     31 H27          4.0030     2.3390    -2.9400 ha         1 TQ4       0.143000
     32 H321         5.8120     1.0730    -7.3360 hc         1 TQ4       0.046700
     33 H322         4.0740     1.2660    -7.5990 hc         1 TQ4       0.046700
     34 H323         4.8020    -0.3460    -7.6460 hc         1 TQ4       0.046700
@<TRIPOS>BOND
     1     1     2 ar
     2     1     6 ar
     3     1     8 ar
     4     2     3 ar
     5     2    11 ar
     6     3     4 ar
     7     3     7 1
     8     4     5 ar
     9     5     6 ar
    10     5    12 1
    11     7    21 1
    12     7    22 1
    13     8     9 ar
    14     8    23 1
    15     9    10 ar
    16     9    24 1
    17    10    11 ar
    18    10    25 1
    19    11    13 1
    20    12    26 1
    21    12    27 1
    22    13    14 1
    23    14    15 ar
    24    14    19 ar
    25    15    16 ar
    26    15    28 1
    27    16    17 ar
    28    16    29 1
    29    17    18 ar
    30    17    20 1
    31    18    19 ar
    32    18    30 1
    33    19    31 1
    34    20    32 1
    35    20    33 1
    36    20    34 1
@<TRIPOS>SUBSTRUCTURE
     1 TQ4         1 TEMP              0 ****  ****    0 ROOT
