@<TRIPOS>MOLECULE
molecule
   43    45     1     0     0
SMALL
bcc


@<TRIPOS>ATOM
      1 C1           0.0000     0.0000     0.0000 ca         1 TQ5       0.469600
      2 C2           1.4160     0.0000     0.0000 ca         1 TQ5      -0.289600
      3 C3           2.0870     0.0000     1.2440 ca         1 TQ5       0.744200
      4 N4           1.3590    -0.0100     2.3520 nb         1 TQ5      -0.779000
      5 C5           0.0310    -0.0140     2.3090 ca         1 TQ5       0.943900
      6 N6          -0.6460    -0.0100     1.1770 nb         1 TQ5      -0.745000
      7 N7           3.4640     0.0040     1.3030 nv         1 TQ5      -1.065500
      8 C8          -0.6880     0.0050    -1.2200 ca         1 TQ5      -0.194300
      9 C9           0.0080     0.0150    -2.3950 ca         1 TQ5      -0.086000
     10 C12          1.3950     0.0220    -2.4070 ca         1 TQ5      -0.159000
     11 C13          2.1110     0.0170    -1.2210 ca         1 TQ5       0.063900
     12 N14         -0.6710    -0.0240     3.5010 nv         1 TQ5      -1.061500
     13 S20          3.8720     0.0240    -1.2450 ss         1 TQ5      -0.151800
     14 C22          4.1550     0.2040    -2.9740 ca         1 TQ5      -0.061100
     15 C23          4.3680    -0.9190    -3.7650 ca         1 TQ5      -0.076500
     16 C24          4.5900    -0.7740    -5.1200 ca         1 TQ5      -0.143500
     17 C25          4.5980     0.4860    -5.6910 ca         1 TQ5      -0.042300
     18 C26          4.3920     1.6050    -4.9060 ca         1 TQ5      -0.143500
     19 C27          4.1650     1.4680    -3.5510 ca         1 TQ5      -0.076500
     20 C32          4.8410     0.6390    -7.1700 c3         1 TQ5      -0.028700
     21 C33          4.8010     2.1230    -7.5410 c3         1 TQ5      -0.081100
     22 C37          3.7560    -0.1100    -7.9450 c3         1 TQ5      -0.081100
     23 C41          6.2120     0.0630    -7.5260 c3         1 TQ5      -0.081100
     24 HN71         3.9580     0.8690     1.3940 hn         1 TQ5       0.449800
     25 HN72         3.9670    -0.8620     1.3130 hn         1 TQ5       0.449800
     26 HC8         -1.7710     0.0000    -1.2310 ha         1 TQ5       0.151000
     27 HC9         -0.5330     0.0190    -3.3330 ha         1 TQ5       0.135000
     28 H12          1.9230     0.0300    -3.3530 ha         1 TQ5       0.148000
     29 H141        -0.9210    -0.8950     3.9270 hn         1 TQ5       0.443800
     30 H142        -0.9360     0.8380     3.9330 hn         1 TQ5       0.443800
     31 H23          4.3610    -1.9060    -3.3190 ha         1 TQ5       0.142000
     32 H24          4.7540    -1.6480    -5.7380 ha         1 TQ5       0.138500
     33 H26          4.4000     2.5900    -5.3560 ha         1 TQ5       0.138500
     34 H27          4.0030     2.3450    -2.9370 ha         1 TQ5       0.142000
     35 H331         4.9730     2.2330    -8.6050 hc         1 TQ5       0.038256
     36 H332         3.8310     2.5320    -7.2880 hc         1 TQ5       0.038256
     37 H333         5.5710     2.6530    -6.9940 hc         1 TQ5       0.038256
     38 H371         3.8680    -1.1750    -7.7840 hc         1 TQ5       0.038256
     39 H372         3.8520     0.1080    -9.0020 hc         1 TQ5       0.038256
     40 H373         2.7800     0.2080    -7.5980 hc         1 TQ5       0.038256
     41 H411         6.4650     0.3340    -8.5440 hc         1 TQ5       0.038256
     42 H412         6.9590     0.4620    -6.8500 hc         1 TQ5       0.038256
     43 H413         6.1850    -1.0160    -7.4360 hc         1 TQ5       0.038256
@<TRIPOS>BOND
     1     1     2 ar
     2     1     6 ar
     3     1     8 ar
     4     2     3 ar
     5     2    11 ar
     6     3     4 ar
     7     3     7 1
     8     4     5 ar
     9     5     6 ar
    10     5    12 1
    11     7    24 1
    12     7    25 1
    13     8     9 ar
    14     8    26 1
    15     9    10 ar
    16     9    27 1
    17    10    11 ar
    18    10    28 1
    19    11    13 1
    20    12    29 1
    21    12    30 1
    22    13    14 1
    23    14    15 ar
    24    14    19 ar
    25    15    16 ar
    26    15    31 1
    27    16    17 ar
    28    16    32 1
    29    17    18 ar
    30    17    20 1
    31    18    19 ar
    32    18    33 1
    33    19    34 1
    34    20    21 1
    35    20    22 1
    36    20    23 1
    37    21    35 1
    38    21    36 1
    39    21    37 1
    40    22    38 1
    41    22    39 1
    42    22    40 1
    43    23    41 1
    44    23    42 1
    45    23    43 1
@<TRIPOS>SUBSTRUCTURE
     1 TQ5         1 TEMP              0 ****  ****    0 ROOT
