@<TRIPOS>MOLECULE
TQ6
   44    47     1     0     0
SMALL
bcc


@<TRIPOS>ATOM
      1 C1           0.0000     0.0000     0.0000 ca         1 TQ6       0.559200
      2 N2           1.3260     0.0000     0.0000 nb         1 TQ6      -0.648000
      3 C3           2.0200     0.0000     1.1340 ca         1 TQ6       0.721900
      4 N4           1.4440    -0.0050     2.3210 nb         1 TQ6      -0.623000
      5 C5          -2.6710    -0.0000     2.5840 ca         1 TQ6      -0.134000
      6 C6          -2.0740     0.0010     1.3340 ca         1 TQ6       0.099900
      7 C7          -0.6700     0.0010     1.2440 ca         1 TQ6      -0.264600
      8 C8           0.1060     0.0010     2.4280 ca         1 TQ6       0.416600
      9 C9          -0.5340     0.0010     3.6720 ca         1 TQ6      -0.160300
     10 C10         -1.8990     0.0010     3.7360 ca         1 TQ6      -0.063000
     11 N11          3.4010    -0.0000     1.0660 nv         1 TQ6      -0.642500
     12 N12         -0.7070    -0.0010    -1.1830 nv         1 TQ6      -0.637500
     13 S21         -3.0610    -0.0010    -0.1240 ss         1 TQ6      -0.270800
     14 C22         -4.6630     0.1660     0.5900 ca         1 TQ6      -0.045100
     15 C23         -5.1690     1.4270     0.8730 ca         1 TQ6      -0.018000
     16 C24         -6.4250     1.5570     1.4320 ca         1 TQ6      -0.162500
     17 C25         -7.1800     0.4260     1.7120 ca         1 TQ6       0.041600
     18 C26         -6.6740    -0.8350     1.4310 ca         1 TQ6      -0.162500
     19 C27         -5.4210    -0.9650     0.8640 ca         1 TQ6      -0.018000
     20 C32        -10.4410    -0.7280     2.9050 c3         1 TQ6       0.199400
     21 C33         -8.9820    -0.8000     2.4500 c3         1 TQ6       0.083800
     22 N34         -8.4530     0.5580     2.2790 nh         1 TQ6      -0.354000
     23 C35         -9.2970     1.2170     1.2750 c3         1 TQ6       0.083800
     24 C36        -10.7470     1.2390     1.7610 c3         1 TQ6       0.199400
     25 O37        -11.2300    -0.0960     1.8980 os         1 TQ6      -0.391600
     26 HC5         -3.7510    -0.0000     2.6630 ha         1 TQ6       0.130000
     27 HC9          0.0520     0.0010     4.5830 ha         1 TQ6       0.121000
     28 H10         -2.3860     0.0000     4.7040 ha         1 TQ6       0.105000
     29 H111         3.9000     0.8670     1.0240 hn         1 TQ6       0.279800
     30 H112         3.9010    -0.8670     1.0590 hn         1 TQ6       0.279800
     31 H121        -0.9990    -0.8670    -1.5910 hn         1 TQ6       0.294800
     32 H122        -0.8970     0.8620    -1.6530 hn         1 TQ6       0.294800
     33 H23         -4.5800     2.3090     0.6540 ha         1 TQ6       0.118000
     34 H24         -6.8210     2.5410     1.6530 ha         1 TQ6       0.127000
     35 H26         -7.2650    -1.7170     1.6470 ha         1 TQ6       0.127000
     36 H27         -5.0260    -1.9500     0.6440 ha         1 TQ6       0.118000
     37 H322       -10.5020    -0.1540     3.8220 h1         1 TQ6       0.016450
     38 H331        -8.3980    -1.3220     3.1970 h1         1 TQ6       0.031450
     39 H332        -8.9260    -1.3290     1.5060 h1         1 TQ6       0.031450
     40 H351        -9.2390     0.6710     0.3420 h1         1 TQ6       0.031450
     41 H352        -8.9520     2.2340     1.1270 h1         1 TQ6       0.031450
     42 H361       -10.7970     1.7390     2.7210 h1         1 TQ6       0.016450
     43 H362       -11.3590     1.7700     1.0410 h1         1 TQ6       0.016450
     44 H321       -10.8130    -1.7300     3.0760 h1         1 TQ6       0.016450
@<TRIPOS>BOND
     1     1     2 ar  
     2     1     7 ar  
     3     1    12 1   
     4     2     3 ar  
     5     3     4 ar  
     6     3    11 1   
     7     4     8 ar  
     8     5     6 ar  
     9     5    10 ar  
    10     5    26 1   
    11     6     7 ar  
    12     6    13 1   
    13     7     8 ar  
    14     8     9 ar  
    15     9    10 ar  
    16     9    27 1   
    17    10    28 1   
    18    11    29 1   
    19    11    30 1   
    20    12    31 1   
    21    12    32 1   
    22    13    14 1   
    23    14    15 ar  
    24    14    19 ar  
    25    15    16 ar  
    26    15    33 1   
    27    16    17 ar  
    28    16    34 1   
    29    17    18 ar  
    30    17    22 1   
    31    18    19 ar  
    32    18    35 1   
    33    19    36 1   
    34    20    21 1   
    35    20    25 1   
    36    20    37 1   
    37    20    44 1   
    38    21    22 1   
    39    21    38 1   
    40    21    39 1   
    41    22    23 1   
    42    23    24 1   
    43    23    40 1   
    44    23    41 1   
    45    24    25 1   
    46    24    42 1   
    47    24    43 1   
@<TRIPOS>SUBSTRUCTURE
     1 TQ6         1 TEMP              0 ****  ****    0 ROOT
