@<TRIPOS>MOLECULE
molecule
   41    42     1     0     0
SMALL
bcc


@<TRIPOS>ATOM
      1 C1           1.4650     0.0000     0.0000 c3         1 TQ8       0.156500
      2 N2           0.0000     0.0000     0.0000 n7         1 TQ8      -0.889100
      3 C3           1.9750     0.0000     1.4410 c3         1 TQ8      -0.030100
      4 C4           1.9680    -1.2290    -0.7120 c          1 TQ8       0.518100
      5 O5           1.2170    -2.1490    -0.9300 o          1 TQ8      -0.472100
      6 C6           1.5760     1.2870     2.1170 ca         1 TQ8      -0.089300
      7 C7           0.3710     1.3710     2.7880 ca         1 TQ8      -0.117500
      8 C8           2.4180     2.3820     2.0690 ca         1 TQ8      -0.117500
      9 C9           0.0040     2.5510     3.4070 ca         1 TQ8      -0.120500
     10 C10          2.0520     3.5630     2.6880 ca         1 TQ8      -0.120500
     11 C11          0.8440     3.6480     3.3550 ca         1 TQ8      -0.120000
     12 S12         -0.8290     0.8230    -1.1740 sy         1 TQ8       1.424200
     13 O13         -2.2090     0.6020    -0.9200 o          1 TQ8      -0.633800
     14 O14         -0.2490     2.1180    -1.2420 o          1 TQ8      -0.633800
     15 C15          0.0830    -1.1950    -5.1220 ca         1 TQ8      -0.022300
     16 C16         -0.9950    -1.6120    -4.3660 ca         1 TQ8      -0.149000
     17 C17         -1.2730    -0.9970    -3.1590 ca         1 TQ8      -0.024000
     18 C18         -0.4740     0.0370    -2.7110 ca         1 TQ8      -0.322500
     19 C19          0.6050     0.4570    -3.4680 ca         1 TQ8      -0.024000
     20 C20          0.8830    -0.1600    -4.6740 ca         1 TQ8      -0.149000
     21 C22          3.4070    -1.3100    -1.1490 c3         1 TQ8      -0.060000
     22 Cl           3.6990    -2.8910    -1.9650 cl         1 TQ8      -0.154400
     23 H1           1.8260     0.8850    -0.5100 h1         1 TQ8       0.092700
     24 H2          -0.5000    -0.5240     0.6910 hn         1 TQ8       0.462800
     25 H31C         1.5450    -0.8370     1.9770 hc         1 TQ8       0.059200
     26 H32C         3.0550    -0.0880     1.4420 hc         1 TQ8       0.059200
     27 H221         4.0530    -1.2260    -0.2840 h1         1 TQ8       0.084700
     28 H222         3.6210    -0.5030    -1.8390 h1         1 TQ8       0.084700
     29 H7          -0.2870     0.5110     2.8280 ha         1 TQ8       0.126000
     30 H8           3.3640     2.3150     1.5470 ha         1 TQ8       0.126000
     31 H9          -0.9420     2.6170     3.9310 ha         1 TQ8       0.132500
     32 H10          2.7110     4.4220     2.6490 ha         1 TQ8       0.132500
     33 H11          0.5570     4.5730     3.8400 ha         1 TQ8       0.132000
     34 H16         -1.6220    -2.4230    -4.7170 ha         1 TQ8       0.137000
     35 H20          1.7280     0.1670    -5.2670 ha         1 TQ8       0.137000
     36 H211         1.3910    -1.6020    -6.7530 hc         1 TQ8       0.049700
     37 H212         0.3260    -2.9440    -6.3110 hc         1 TQ8       0.049700
     38 H213        -0.3250    -1.5490    -7.1820 hc         1 TQ8       0.049700
     39 H17         -2.1190    -1.3240    -2.5670 ha         1 TQ8       0.146500
     40 H19          1.2310     1.2670    -3.1160 ha         1 TQ8       0.146500
     41 C21          0.3900    -1.8700    -6.4340 c3         1 TQ8      -0.057800
@<TRIPOS>BOND
     1     1     2 1
     2     1     3 1
     3     1     4 1
     4     2    12 1
     5     3     6 1
     6     4     5 2
     7     4    21 1
     8     6     7 ar
     9     6     8 ar
    10     7     9 ar
    11     8    10 ar
    12     9    11 ar
    13    10    11 ar
    14    12    13 2
    15    12    14 2
    16    12    18 1
    17    15    16 ar
    18    15    20 ar
    19    15    41 1
    20    16    17 ar
    21    17    18 ar
    22    18    19 ar
    23    19    20 ar
    24    21    22 1
    25     1    23 1
    26     2    24 1
    27     3    25 1
    28     3    26 1
    29    21    27 1
    30    21    28 1
    31     7    29 1
    32     8    30 1
    33     9    31 1
    34    10    32 1
    35    11    33 1
    36    16    34 1
    37    20    35 1
    38    41    36 1
    39    41    37 1
    40    41    38 1
    41    17    39 1
    42    19    40 1
@<TRIPOS>SUBSTRUCTURE
     1 TQ8         1 TEMP              0 ****  ****    0 ROOT
