@<TRIPOS>MOLECULE
TQ9
   15    14     1     0     0
SMALL
bcc


@<TRIPOS>ATOM
      1 C91         0.8620    0.5950    0.4980 c3        1 TQ9     -0.077000
      2 C92         1.5270   -0.5860   -0.1430 c         1 TQ9      0.577100
      3 C2          2.6650   -1.1530    0.6590 c3        1 TQ9     -0.168400
      4 O4          1.1860   -1.0780   -1.2270 o         1 TQ9     -0.570100
      5 C5          3.6920   -0.1130    1.0420 c3        1 TQ9     -0.201400
      6 C7          3.2050    0.7960    2.1860 c         1 TQ9      0.897600
      7 O8          2.4730    0.2910    3.0880 o         1 TQ9     -0.843800
      8 O9          3.5550    2.0090    2.1580 o         1 TQ9     -0.843800
      9 CL         -0.6850    1.0470   -0.2060 cl        1 TQ9     -0.223400
     10 H911        1.5400    1.4860    0.4190 h1        1 TQ9      0.129700
     11 H912        0.6900    0.3890    1.5890 h1        1 TQ9      0.129700
     12 H21C        2.2340   -1.5860    1.6060 hc        1 TQ9      0.063200
     13 H22C        3.1440   -1.9810    0.0750 hc        1 TQ9      0.063200
     14 H51C        3.9670    0.5170    0.1600 hc        1 TQ9      0.033200
     15 H52C        4.6180   -0.6310    1.3970 hc        1 TQ9      0.033200
@<TRIPOS>BOND
     1    1    2 1   
     2    1    9 1   
     3    1   10 1   
     4    1   11 1   
     5    2    3 1   
     6    2    4 2   
     7    3    5 1   
     8    3   12 1   
     9    3   13 1   
    10    5    6 1   
    11    5   14 1   
    12    5   15 1   
    13    6    7 1   
    14    6    8 1   
@<TRIPOS>SUBSTRUCTURE
     1 TQ9         1 TEMP              0 ****  ****    0 ROOT
