@<TRIPOS>MOLECULE
molecule
   15    14     1     0     0
SMALL
bcc


@<TRIPOS>ATOM
      1 C91          0.0000     0.0000     0.0000 c3         1 TQ9      -0.058000
      2 C92          1.5070     0.0000     0.0000 c          1 TQ9       0.538100
      3 C2           2.2610     0.0000     1.3040 c3         1 TQ9      -0.154400
      4 O4           2.1110    -0.0000    -1.0460 o          1 TQ9      -0.510100
      5 C5           3.7660    -0.0000     1.0250 c3         1 TQ9      -0.173400
      6 C7           4.5190    -0.0000     2.3300 c          1 TQ9       0.889600
      7 O8           3.9150     0.0000     3.3770 o          1 TQ9      -0.854300
      8 O9           5.8610    -0.0000     2.3300 o          1 TQ9      -0.854300
      9 Cl          -0.6010     0.0000    -1.7000 cl         1 TQ9      -0.205400
     10 H911        -0.3610     0.8850     0.5110 h1         1 TQ9       0.076700
     11 H912        -0.3610    -0.8850     0.5110 h1         1 TQ9       0.076700
     12 H21C         2.0000    -0.8840     1.8730 hc         1 TQ9       0.070700
     13 H22C         2.0000     0.8840     1.8730 hc         1 TQ9       0.070700
     14 H51C         4.0280    -0.8850     0.4570 hc         1 TQ9       0.043700
     15 H52C         4.0280     0.8850     0.4570 hc         1 TQ9       0.043700
@<TRIPOS>BOND
     1     1     2 1
     2     1     9 1
     3     2     3 1
     4     2     4 2
     5     3     5 1
     6     5     6 1
     7     6     7 1
     8     6     8 1
     9     1    10 1
    10     1    11 1
    11     3    12 1
    12     3    13 1
    13     5    14 1
    14     5    15 1
@<TRIPOS>SUBSTRUCTURE
     1 TQ9         1 TEMP              0 ****  ****    0 ROOT
