@<TRIPOS>MOLECULE
molecule
   58    60     1     0     0
SMALL
bcc


@<TRIPOS>ATOM
      1 C2D          0.0000     0.0000     0.0000 c3         1 TQD       0.648900
      2 C4D          0.2360     1.2720     2.0300 ce         1 TQD       0.607500
      3 C4A          1.5360     0.6180     2.2490 ce         1 TQD      -0.369800
      4 C5D          2.1410     0.6640     3.6260 c3         1 TQD      -0.033200
      5 C6D          3.6330     0.3370     3.5680 c3         1 TQD      -0.096700
      6 C7'          3.8110    -0.9640     2.7760 c3         1 TQD      -0.076400
      7 C8           3.4560    -0.6900     1.3150 c3         1 TQD      -0.063200
      8 C8A          2.1250     0.0000     1.2170 c2         1 TQD       0.236800
      9 C8'          4.1760     0.1540     4.9870 c3         1 TQD       0.245800
     10 C1'          2.9370     1.7370     6.4410 ca         1 TQD       0.252600
     11 C2'          2.8550     2.9420     7.1260 ca         1 TQD      -0.351500
     12 C3'          1.7130     3.2530     7.8480 ca         1 TQD       0.191100
     13 C3B          2.7640     5.3040     8.4380 c3         1 TQD       0.128700
     14 C4'          0.6500     2.3600     7.8840 ca         1 TQD       0.005100
     15 C4B         -1.5080     3.3640     7.8990 c3         1 TQD       0.135700
     16 C5'          0.7320     1.1540     7.1980 ca         1 TQD       0.191100
     17 C5B         -0.1540    -0.9420     6.5050 c3         1 TQD       0.128700
     18 C6'          1.8760     0.8440     6.4780 ca         1 TQD      -0.351500
     19 N1'          1.4670     0.0000     0.0000 nu         1 TQD      -0.831000
     20 N2'         -0.4920    -1.3340     0.3680 nz         1 TQD      -0.857600
     21 N3'         -0.4780     0.9840     0.9750 n2         1 TQD      -0.664900
     22 N4'         -0.2310     2.1950     2.9450 nz         1 TQD      -0.746600
     23 N9'          4.0880     1.4260     5.7090 nh         1 TQD      -0.736000
     24 O3'          1.6330     4.4340     8.5190 os         1 TQD      -0.296400
     25 O4'         -0.4730     2.6650     8.5920 os         1 TQD      -0.298900
     26 O5'         -0.3080     0.2780     7.2340 os         1 TQD      -0.296400
     27 C9'          5.2070     2.3700     5.6660 c3         1 TQD       0.224100
     28 H2'         -0.3600     0.2650    -0.9870 hx         1 TQD       0.179700
     29 H5'1         2.0110     1.6580     4.0380 hc         1 TQD       0.070200
     30 H5'2         1.6420    -0.0590     4.2590 hc         1 TQD       0.070200
     31 H6'          4.1620     1.1400     3.0700 hc         1 TQD       0.077700
     32 H7'1         4.8410    -1.2930     2.8440 hc         1 TQD       0.077700
     33 H7'2         3.1520    -1.7260     3.1730 hc         1 TQD       0.077700
     34 H81          4.2180    -0.0570     0.8760 hc         1 TQD       0.098200
     35 H82          3.4110    -1.6290     0.7770 hc         1 TQD       0.098200
     36 H8'1         3.5900    -0.5960     5.5040 h1         1 TQD       0.073700
     37 H8'2         5.2100    -0.1640     4.9400 h1         1 TQD       0.073700
     38 H2'1         3.6840     3.6380     7.0970 ha         1 TQD       0.142500
     39 H3B1         2.5730     6.1990     9.0160 h1         1 TQD       0.043200
     40 H3B2         3.6370     4.7980     8.8330 h1         1 TQD       0.043200
     41 H3B3         2.9400     5.5720     7.4030 h1         1 TQD       0.043200
     42 H4B1        -1.1060     3.7960     6.9910 h1         1 TQD       0.029700
     43 H4B2        -2.3040     2.6740     7.6480 h1         1 TQD       0.029700
     44 H4B3        -1.8990     4.1520     8.5310 h1         1 TQD       0.029700
     45 H5B1        -0.9750    -1.6080     6.7390 h1         1 TQD       0.043200
     46 H5B2         0.7820    -1.4110     6.7820 h1         1 TQD       0.043200
     47 H5B3        -0.1520    -0.7300     5.4430 h1         1 TQD       0.043200
     48 H6'1         1.9400    -0.0960     5.9430 ha         1 TQD       0.142500
     49 H1D          1.9800    -0.0000    -0.8600 hn         1 TQD       0.508800
     50 H2A1        -1.4850    -1.3690     0.2460 hn         1 TQD       0.469133
     51 H2A2        -0.0610    -2.0220    -0.2170 hn         1 TQD       0.469133
     52 H4'1        -0.9560     2.7430     2.5250 hn         1 TQD       0.493133
     53 H4'2        -0.5950     1.7160     3.7450 hn         1 TQD       0.493133
     54 H9'1         4.8710     3.3100     5.2440 h1         1 TQD       0.048700
     55 H9'2         5.5770     2.5380     6.6710 h1         1 TQD       0.048700
     56 H9'3         6.0010     1.9620     5.0530 h1         1 TQD       0.048700
     57 H2'3        -0.2560    -1.5260     1.3210 hn         1 TQD       0.469133
     58 H4'3         0.5080     2.8220     3.1930 hn         1 TQD       0.493133
@<TRIPOS>BOND
     1     1    19 1
     2     1    20 1
     3     1    21 1
     4     1    28 1
     5     2     3 1
     6     2    21 2
     7     2    22 1
     8     3     4 1
     9     3     8 2
    10     4     5 1
    11     4    29 1
    12     4    30 1
    13     5     6 1
    14     5     9 1
    15     5    31 1
    16     6     7 1
    17     6    32 1
    18     6    33 1
    19     7     8 1
    20     7    34 1
    21     7    35 1
    22     8    19 1
    23     9    23 1
    24     9    36 1
    25     9    37 1
    26    10    11 ar
    27    10    18 ar
    28    10    23 1
    29    11    12 ar
    30    11    38 1
    31    12    14 ar
    32    12    24 1
    33    13    24 1
    34    13    39 1
    35    13    40 1
    36    13    41 1
    37    14    16 ar
    38    14    25 1
    39    15    25 1
    40    15    42 1
    41    15    43 1
    42    15    44 1
    43    16    18 ar
    44    16    26 1
    45    17    26 1
    46    17    45 1
    47    17    46 1
    48    17    47 1
    49    18    48 1
    50    19    49 1
    51    20    50 1
    52    20    51 1
    53    22    52 1
    54    22    53 1
    55    23    27 1
    56    27    54 1
    57    27    55 1
    58    27    56 1
    59    57    20 1
    60    58    22 1
@<TRIPOS>SUBSTRUCTURE
     1 TQD         1 TEMP              0 ****  ****    0 ROOT
