@<TRIPOS>MOLECULE
TQJ
   56    58     1     0     0
SMALL
bcc


@<TRIPOS>ATOM
      1 N1           0.0000     0.0000     0.0000 n3         1 TQJ      -0.548500
      2 S2          -0.8510     1.1070    -0.8890 s6         1 TQJ       0.965900
      3 C3           1.4710     0.0000     0.0000 c3         1 TQJ       0.233300
      4 C4          -0.6950    -1.0080     0.8170 c3         1 TQJ       0.233300
      5 C5          -1.0840     0.3090    -2.5030 c3         1 TQJ      -0.053600
      6 O6          -2.0930     1.2240    -0.2080 o          1 TQJ      -0.583800
      7 O7           0.0300     2.2160    -1.0030 o          1 TQJ      -0.583800
      8 C8           1.9580     0.0000     1.4530 c3         1 TQJ       0.126800
      9 C9          -0.1170    -0.9670     2.2360 c3         1 TQJ       0.126800
     10 C10         -1.8660     1.2450    -3.4260 c3         1 TQJ       0.088700
     11 N11          1.3380    -1.1200     2.1730 nh         1 TQJ      -0.464300
     12 C12         -2.1710     0.5260    -4.7420 c3         1 TQJ      -0.069400
     13 N13         -1.0690     2.4440    -3.6960 n          1 TQJ      -0.034300
     14 C14          1.8780    -1.2540     3.4470 ca         1 TQJ       0.497200
     15 C15         -3.0590     1.4140    -5.6140 c3         1 TQJ      -0.020400
     16 C16          0.1340     2.3320    -4.2920 c          1 TQJ       0.626900
     17 O17         -1.5640     3.7200    -3.3340 oh         1 TQJ      -0.443100
     18 C18          1.4190    -2.2620     4.2880 ca         1 TQJ      -0.244300
     19 N19          2.8280    -0.4220     3.8470 nb         1 TQJ      -0.621000
     20 C20         -3.3630     0.6950    -6.9300 c3         1 TQJ      -0.063700
     21 O21          0.5570     1.2390    -4.6030 o          1 TQJ      -0.657100
     22 C22          1.9640    -2.3820     5.5540 ca         1 TQJ      -0.024000
     23 C23          3.3670    -0.5130     5.0490 ca         1 TQJ       0.456200
     24 C24         -4.2390     1.5710    -7.7900 ca         1 TQJ       0.596300
     25 C25          2.9550    -1.4880     5.9370 ca         1 TQJ      -0.127200
     26 N26         -3.6740     2.4150    -8.6310 nb         1 TQJ      -0.618000
     27 N27         -5.5480     1.4680    -7.6860 nb         1 TQJ      -0.618000
     28 Br28         3.7370    -1.6050     7.6550 br         1 TQJ      -0.111100
     29 C29         -4.4100     3.1980    -9.4010 ca         1 TQJ       0.442700
     30 C30         -6.3480     2.2190    -8.4250 ca         1 TQJ       0.442700
     31 C31         -5.7910     3.1230    -9.3160 ca         1 TQJ      -0.352600
     32 H3           1.8340     0.8870    -0.5050 h1         1 TQJ       0.028700
     33 H3A          1.8340    -0.8870    -0.5050 h1         1 TQJ       0.028700
     34 H4          -1.7540    -0.7820     0.8490 h1         1 TQJ       0.028700
     35 H4A         -0.5390    -1.9910     0.3900 h1         1 TQJ       0.028700
     36 H5          -1.6350    -0.6140    -2.3730 h1         1 TQJ       0.093700
     37 H5A         -0.1170     0.0940    -2.9420 h1         1 TQJ       0.093700
     38 H8           3.0360    -0.1120     1.4720 h1         1 TQJ       0.031200
     39 H8A          1.6780     0.9330     1.9270 h1         1 TQJ       0.031200
     40 H9          -0.3600    -0.0160     2.6950 h1         1 TQJ       0.031200
     41 H9A         -0.5400    -1.7750     2.8200 h1         1 TQJ       0.031200
     42 H10         -2.7950     1.5300    -2.9470 h1         1 TQJ       0.055700
     43 H12         -2.6840    -0.4050    -4.5340 hc         1 TQJ       0.045200
     44 H12A        -1.2440     0.3200    -5.2630 hc         1 TQJ       0.045200
     45 H15         -3.9860     1.6200    -5.0930 hc         1 TQJ       0.018200
     46 H15A        -2.5470     2.3460    -5.8210 hc         1 TQJ       0.018200
     47 H16          0.7230     3.2180    -4.4950 h5         1 TQJ      -0.011800
     48 HO17        -1.2020     4.3730    -3.9100 ho         1 TQJ       0.405000
     49 H18          0.6440    -2.9430     3.9570 ha         1 TQJ       0.127000
     50 H20         -2.4360     0.4890    -7.4510 hc         1 TQJ       0.033200
     51 H20A        -3.8750    -0.2360    -6.7230 hc         1 TQJ       0.033200
     52 H22          1.6250    -3.1560     6.2320 ha         1 TQJ       0.119000
     53 H23          4.1400     0.1860     5.3430 h4         1 TQJ      -0.009900
     54 H29         -3.9390     3.8910   -10.0880 h4         1 TQJ      -0.014900
     55 H30         -7.4230     2.1310    -8.3320 h4         1 TQJ      -0.014900
     56 H31         -6.4200     3.7520    -9.9340 ha         1 TQJ       0.124000
@<TRIPOS>BOND
     1     1     2 1   
     2     1     3 1   
     3     1     4 1   
     4     2     5 1   
     5     2     6 2   
     6     2     7 2   
     7     3     8 1   
     8     3    32 1   
     9     3    33 1   
    10     4     9 1   
    11     4    34 1   
    12     4    35 1   
    13     5    10 1   
    14     5    36 1   
    15     5    37 1   
    16     8    11 1   
    17     8    38 1   
    18     8    39 1   
    19     9    11 1   
    20     9    40 1   
    21     9    41 1   
    22    10    12 1   
    23    10    13 1   
    24    10    42 1   
    25    11    14 1   
    26    12    15 1   
    27    12    43 1   
    28    12    44 1   
    29    13    16 1   
    30    13    17 1   
    31    14    18 ar  
    32    14    19 ar  
    33    15    20 1   
    34    15    45 1   
    35    15    46 1   
    36    16    21 2   
    37    16    47 1   
    38    17    48 1   
    39    18    22 ar  
    40    18    49 1   
    41    19    23 ar  
    42    20    24 1   
    43    20    50 1   
    44    20    51 1   
    45    22    25 ar  
    46    22    52 1   
    47    23    25 ar  
    48    23    53 1   
    49    24    26 ar  
    50    24    27 ar  
    51    25    28 1   
    52    26    29 ar  
    53    27    30 ar  
    54    29    31 ar  
    55    29    54 1   
    56    30    31 ar  
    57    30    55 1   
    58    31    56 1   
@<TRIPOS>SUBSTRUCTURE
     1 TQJ         1 TEMP              0 ****  ****    0 ROOT
