@<TRIPOS>MOLECULE
molecule
   27    28     1     0     0
SMALL
bcc


@<TRIPOS>ATOM
      1 CAM          0.0000     0.0000     0.0000 ca         1 TQL      -0.083000
      2 CAN          1.3840     0.0000     0.0000 ca         1 TQL      -0.264300
      3 CAO          2.0600     0.0000     1.2070 ca         1 TQL       0.429200
      4 NAP          1.4080    -0.0020     2.3530 nb         1 TQL      -0.691000
      5 CAQ          0.0910    -0.0010     2.4030 ca         1 TQL       0.462200
      6 CAL         -0.6630    -0.0010     1.2320 ca         1 TQL      -0.290200
      7 CAI         -2.1440    -0.0010     1.2900 ce         1 TQL       0.480500
      8 NAJ         -2.7610     0.7200     2.1830 n2         1 TQL      -0.401200
      9 OAK         -2.0260     1.5990     3.0150 oh         1 TQL      -0.393500
     10 CAH         -2.9230    -0.8190     0.3340 ca         1 TQL      -0.156900
     11 CAG         -2.2670    -1.6990    -0.5290 ca         1 TQL      -0.075000
     12 CAF         -2.9940    -2.4590    -1.4180 ca         1 TQL      -0.183000
     13 CAD         -4.3800    -2.3520    -1.4590 ca         1 TQL       0.150100
     14 OAE         -5.0910    -3.1050    -2.3400 oh         1 TQL      -0.522100
     15 CAC         -5.0390    -1.4810    -0.6070 ca         1 TQL      -0.237000
     16 CAB         -4.3180    -0.7170     0.2950 ca         1 TQL       0.173100
     17 OAA         -4.9630     0.1330     1.1350 oh         1 TQL      -0.475100
     18 HAM         -0.5550     0.0000    -0.9300 ha         1 TQL       0.145000
     19 HAN          1.9310     0.0010    -0.9350 ha         1 TQL       0.139000
     20 HAO          3.1430    -0.0000     1.2100 h4         1 TQL       0.023100
     21 HAQ         -0.4090    -0.0020     3.3640 h4         1 TQL       0.043100
     22 HAK         -2.6200     2.1710     3.4710 ho         1 TQL       0.431000
     23 HAG         -1.1880    -1.7840    -0.4990 ha         1 TQL       0.153000
     24 HAF         -2.4850    -3.1420    -2.0880 ha         1 TQL       0.147000
     25 HAE         -5.3590    -3.9070    -1.9220 ho         1 TQL       0.426000
     26 HAC         -6.1190    -1.4030    -0.6410 ha         1 TQL       0.148000
     27 HAA         -5.6540     0.5730     0.6680 ho         1 TQL       0.421000
@<TRIPOS>BOND
     1     1     2 ar
     2     1     6 ar
     3     2     3 ar
     4     3     4 ar
     5     4     5 ar
     6     5     6 ar
     7     6     7 1
     8     7     8 2
     9     7    10 1
    10     8     9 1
    11    10    11 ar
    12    10    16 ar
    13    11    12 ar
    14    12    13 ar
    15    13    14 1
    16    13    15 ar
    17    15    16 ar
    18    16    17 1
    19     1    18 1
    20     2    19 1
    21     3    20 1
    22     5    21 1
    23     9    22 1
    24    11    23 1
    25    12    24 1
    26    14    25 1
    27    15    26 1
    28    17    27 1
@<TRIPOS>SUBSTRUCTURE
     1 TQL         1 TEMP              0 ****  ****    0 ROOT
