@<TRIPOS>MOLECULE
TQL
   27    28     1     0     0
SMALL
bcc


@<TRIPOS>ATOM
      1 CAM          0.0000     0.0000     0.0000 ca         1 TQL      -0.065000
      2 CAN          1.3840     0.0000     0.0000 ca         1 TQL      -0.228300
      3 CAO          2.0600     0.0000     1.2070 ca         1 TQL       0.412200
      4 NAP          1.4080    -0.0020     2.3530 nb         1 TQL      -0.584000
      5 CAQ          0.0910    -0.0010     2.4030 ca         1 TQL       0.436200
      6 CAL         -0.6630    -0.0010     1.2320 ca         1 TQL      -0.274200
      7 CAI         -2.1440    -0.0010     1.2900 ce         1 TQL       0.476500
      8 NAJ         -2.7610     0.7200     2.1830 n2         1 TQL      -0.371200
      9 OAK         -2.0260     1.5990     3.0150 oh         1 TQL      -0.372500
     10 CAH         -2.9230    -0.8190     0.3340 ca         1 TQL      -0.179900
     11 CAG         -2.2670    -1.6990    -0.5290 ca         1 TQL      -0.055000
     12 CAF         -2.9940    -2.4590    -1.4180 ca         1 TQL      -0.173000
     13 CAD         -4.3800    -2.3520    -1.4590 ca         1 TQL       0.172100
     14 OAE         -5.0910    -3.1050    -2.3400 oh         1 TQL      -0.503100
     15 CAC         -5.0390    -1.4810    -0.6070 ca         1 TQL      -0.235000
     16 CAB         -4.3180    -0.7170     0.2950 ca         1 TQL       0.197100
     17 OAA         -4.9630     0.1330     1.1350 oh         1 TQL      -0.454100
     18 HAM         -0.5550     0.0000    -0.9300 ha         1 TQL       0.123000
     19 HAN          1.9310     0.0010    -0.9350 ha         1 TQL       0.114000
     20 HAO          3.1430    -0.0000     1.2100 h4         1 TQL      -0.021900
     21 HAQ         -0.4090    -0.0020     3.3640 h4         1 TQL      -0.002900
     22 HAK         -2.6200     2.1720     3.4710 ho         1 TQL       0.417000
     23 HAG         -1.1880    -1.7840    -0.4990 ha         1 TQL       0.125000
     24 HAF         -2.4850    -3.1420    -2.0880 ha         1 TQL       0.118000
     25 HAE         -5.3590    -3.9070    -1.9220 ho         1 TQL       0.407000
     26 HAC         -6.1190    -1.4030    -0.6410 ha         1 TQL       0.124000
     27 HAA         -5.6540     0.5730     0.6680 ho         1 TQL       0.397000
@<TRIPOS>BOND
     1     1     2 ar  
     2     1     6 ar  
     3     1    18 1   
     4     2     3 ar  
     5     2    19 1   
     6     3     4 ar  
     7     3    20 1   
     8     4     5 ar  
     9     5     6 ar  
    10     5    21 1   
    11     6     7 1   
    12     7     8 2   
    13     7    10 1   
    14     8     9 1   
    15     9    22 1   
    16    10    11 ar  
    17    10    16 ar  
    18    11    12 ar  
    19    11    23 1   
    20    12    13 ar  
    21    12    24 1   
    22    13    14 1   
    23    13    15 ar  
    24    14    25 1   
    25    15    16 ar  
    26    15    26 1   
    27    16    17 1   
    28    17    27 1   
@<TRIPOS>SUBSTRUCTURE
     1 TQL         1 TEMP              0 ****  ****    0 ROOT
