@<TRIPOS>MOLECULE
molecule
   57    60     1     0     0
SMALL
bcc


@<TRIPOS>ATOM
      1 C2'          0.0000     0.0000     0.0000 c3         1 TQT       0.560900
      2 C4'         -0.1430    -1.3380     1.9400 c3         1 TQT       0.344700
      3 C4B          1.3790    -1.2780     2.0770 c3         1 TQT      -0.127700
      4 C6'          1.1670    -0.0530     4.2460 c3         1 TQT      -0.084700
      5 C7'          1.6980     1.2160     3.5770 c3         1 TQT      -0.063400
      6 C8B          1.8910     0.0000     1.4080 c3         1 TQT       0.171500
      7 C9'          1.5610    -0.0560     5.7220 c3         1 TQT       0.145800
      8 C'0         -0.4910     0.9590     6.3340 c3         1 TQT       0.127800
      9 C'1          1.3730     1.0440     7.7890 c3         1 TQT       0.135500
     10 C'2          2.5920     1.8130     8.2390 c3         1 TQT      -0.062400
     11 C'3          2.7940     1.5480     9.7410 c3         1 TQT      -0.078400
     12 C'4          1.5550     1.9300    10.5440 c3         1 TQT      -0.082400
     13 C'5          0.3000     1.2230    10.0130 c3         1 TQT      -0.070400
     14 C'6          0.1470     1.6110     8.5520 c3         1 TQT      -0.071700
     15 C'7         -0.9940     0.9040     7.8020 c3         1 TQT      -0.098400
     16 N1'          1.4660     0.0000     0.0000 n7         1 TQT      -0.837200
     17 N2'         -0.4860     0.1940    -1.3730 nz         1 TQT      -0.815600
     18 N3'         -0.5040    -1.2750     0.5180 n7         1 TQT      -0.831200
     19 N4'         -0.6400    -2.5950     2.5170 nz         1 TQT      -0.811600
     20 C5'          1.7670    -1.2780     3.5540 c3         1 TQT      -0.092400
     21 C8'          1.2960     1.2200     2.1010 c3         1 TQT      -0.138400
     22 N'0          0.9840     1.1200     6.3860 n3         1 TQT      -0.670600
     23 H2'         -0.3570     0.8070     0.6290 hx         1 TQT       0.130700
     24 H4'         -0.5850    -0.4970     2.4610 hx         1 TQT       0.149700
     25 H4B          1.8180    -2.1400     1.5890 hc         1 TQT       0.093700
     26 H6'          0.0880    -0.0820     4.1550 hc         1 TQT       0.024700
     27 H7'1         2.7790     1.2390     3.6560 hc         1 TQT       0.095700
     28 H7'2         1.2770     2.0850     4.0670 hc         1 TQT       0.095700
     29 H8'          2.9720     0.0360     1.4650 h1         1 TQT       0.141700
     30 H9'1         2.6410    -0.0260     5.8080 h1         1 TQT       0.051700
     31 H9'2         1.1870    -0.9570     6.1940 h1         1 TQT       0.051700
     32 H'1          1.5010     0.0020     8.0580 h1         1 TQT       0.035700
     33 H'21         3.4610     1.4740     7.6880 hc         1 TQT       0.049700
     34 H'22         2.4370     2.8720     8.0730 hc         1 TQT       0.049700
     35 H'31         3.0000     0.4950     9.8890 hc         1 TQT       0.051700
     36 H'32         3.6360     2.1320    10.0920 hc         1 TQT       0.051700
     37 H'41         1.4100     3.0020    10.4800 hc         1 TQT       0.055200
     38 H'42         1.7070     1.6500    11.5800 hc         1 TQT       0.055200
     39 H'51         0.4190     0.1490    10.0980 hc         1 TQT       0.051700
     40 H'52        -0.5690     1.5480    10.5730 hc         1 TQT       0.051700
     41 H'6          0.0820     2.6860     8.4360 hc         1 TQT       0.080700
     42 H'71        -1.0970    -0.1210     8.1360 hc         1 TQT       0.059200
     43 H'72        -1.9230     1.4510     7.9120 hc         1 TQT       0.059200
     44 H1'          1.8000     0.8300    -0.4490 hn         1 TQT       0.407800
     45 H2'1        -0.0110    -0.4370    -1.9870 hn         1 TQT       0.477133
     46 H2'2        -0.3080     1.1360    -1.6600 hn         1 TQT       0.477133
     47 H3'         -0.0660    -2.0310     0.0290 hn         1 TQT       0.398800
     48 H4'1        -1.1140    -3.1220     1.8100 hn         1 TQT       0.474133
     49 H4'2        -1.2750    -2.3910     3.2640 hn         1 TQT       0.474133
     50 H5'1         2.8470    -1.2470     3.6420 hc         1 TQT       0.073200
     51 H5'2         1.3890    -2.1780     4.0250 hc         1 TQT       0.073200
     52 H8'1         0.2160     1.1870     2.0230 hc         1 TQT       0.051700
     53 H8'2         1.6700     2.1200     1.6280 hc         1 TQT       0.051700
     54 H'01        -0.9360     1.8050     5.8240 h1         1 TQT       0.028200
     55 H2'3        -1.4720     0.0250    -1.4050 hn         1 TQT       0.477133
     56 H4'3         0.1320    -3.1360     2.8520 hn         1 TQT       0.474133
     57 H'02        -0.7430     0.0370     5.8240 h1         1 TQT       0.028200
@<TRIPOS>BOND
     1     1    16 1
     2     1    17 1
     3     1    18 1
     4     1    23 1
     5     2     3 1
     6     2    18 1
     7     2    19 1
     8     2    24 1
     9     3     6 1
    10     3    20 1
    11     3    25 1
    12     4     5 1
    13     4     7 1
    14     4    20 1
    15     4    26 1
    16     5    21 1
    17     5    27 1
    18     5    28 1
    19     6    16 1
    20     6    21 1
    21     6    29 1
    22     7    22 1
    23     7    30 1
    24     7    31 1
    25     8    15 1
    26     8    22 1
    27     8    54 1
    28     8    57 1
    29     9    10 1
    30     9    14 1
    31     9    22 1
    32     9    32 1
    33    10    11 1
    34    10    33 1
    35    10    34 1
    36    11    12 1
    37    11    35 1
    38    11    36 1
    39    12    13 1
    40    12    37 1
    41    12    38 1
    42    13    14 1
    43    13    39 1
    44    13    40 1
    45    14    15 1
    46    14    41 1
    47    15    42 1
    48    15    43 1
    49    16    44 1
    50    17    45 1
    51    17    46 1
    52    18    47 1
    53    19    48 1
    54    19    49 1
    55    20    50 1
    56    20    51 1
    57    21    52 1
    58    21    53 1
    59    55    17 1
    60    56    19 1
@<TRIPOS>SUBSTRUCTURE
     1 TQT         1 TEMP              0 ****  ****    0 ROOT
