@<TRIPOS>MOLECULE
molecule
   25    27     1     0     0
SMALL
bcc


@<TRIPOS>ATOM
      1 CAO          0.0000     0.0000     0.0000 ca         1 TQU      -0.119300
      2 CAH          1.4020     0.0000     0.0000 ca         1 TQU      -0.159000
      3 CAL          2.0800     0.0000     1.2000 ca         1 TQU       0.186600
      4 NAA          3.4770     0.0000     1.2070 nv         1 TQU      -0.949200
      5 CAD          1.3800    -0.0000     2.4120 ca         1 TQU      -0.146000
      6 CAF          0.0200    -0.0010     2.4350 ca         1 TQU      -0.146300
      7 CAN         -0.7030    -0.0010     1.2290 ca         1 TQU       0.401600
      8 NAJ         -2.0410     0.0000     1.2310 nb         1 TQU      -0.669000
      9 CAB         -2.7320     0.0020     0.1160 ca         1 TQU       0.426200
     10 CAC         -2.1140     0.0020    -1.1290 ca         1 TQU      -0.259300
     11 CAM         -0.7340     0.0060    -1.2090 ca         1 TQU       0.054800
     12 NAP         -0.0840     0.0080    -2.4450 na         1 TQU       0.006500
     13 CAG         -0.3580     0.7990    -3.5020 cc         1 TQU       0.458400
     14 NAI          0.4730     0.4900    -4.4650 nd         1 TQU      -0.759000
     15 CAE          1.2860    -0.4870    -4.0650 cd         1 TQU       0.567900
     16 NAK          0.9890    -0.8120    -2.8340 nc         1 TQU      -0.534800
     17 H1           1.9430     0.1390    -0.9280 ha         1 TQU       0.155000
     18 H2           3.9800     0.6350     0.6190 hn         1 TQU       0.432300
     19 H3           3.9750    -0.6360     1.7970 hn         1 TQU       0.432300
     20 H4           1.9290    -0.0000     3.3450 ha         1 TQU       0.138000
     21 H5          -0.5060    -0.0010     3.3820 ha         1 TQU       0.152000
     22 H6          -3.8140    -0.0010     0.1670 h4         1 TQU       0.029100
     23 H7          -2.7120     0.0030    -2.0330 ha         1 TQU       0.144000
     24 H8          -1.1290     1.5580    -3.5460 h5         1 TQU       0.075100
     25 H9           2.0710    -0.9350    -4.6610 h5         1 TQU       0.082100
@<TRIPOS>BOND
     1    14    13 2
     2    14    15 1
     3    13    12 1
     4    10     9 ar
     5    10    11 ar
     6    15    16 2
     7    12    11 1
     8    12    16 1
     9     9     8 ar
    10    11     1 ar
    11     8     7 ar
    12     1     7 ar
    13     1     2 ar
    14     7     6 ar
    15     2     3 ar
    16     6     5 ar
    17     3     5 ar
    18     3     4 1
    19     2    17 1
    20     4    18 1
    21     4    19 1
    22     5    20 1
    23     6    21 1
    24     9    22 1
    25    10    23 1
    26    13    24 1
    27    15    25 1
@<TRIPOS>SUBSTRUCTURE
     1 TQU         1 TEMP              0 ****  ****    0 ROOT
