@<TRIPOS>MOLECULE
TQU
   25    27     1     0     0
SMALL
bcc


@<TRIPOS>ATOM
      1 CAO          0.0000     0.0000     0.0000 ca         1 TQU      -0.092300
      2 CAH          1.4020     0.0000     0.0000 ca         1 TQU      -0.154000
      3 CAL          2.0800     0.0000     1.2000 ca         1 TQU       0.054600
      4 NAA          3.4770     0.0000     1.2070 nv         1 TQU      -0.485200
      5 CAD          1.3800    -0.0000     2.4120 ca         1 TQU      -0.124000
      6 CAF          0.0200    -0.0010     2.4350 ca         1 TQU      -0.113300
      7 CAN         -0.7030    -0.0010     1.2290 ca         1 TQU       0.347600
      8 NAJ         -2.0410     0.0000     1.2310 nb         1 TQU      -0.540000
      9 CAB         -2.7320     0.0020     0.1160 ca         1 TQU       0.393200
     10 CAC         -2.1140     0.0020    -1.1290 ca         1 TQU      -0.202300
     11 CAM         -0.7340     0.0060    -1.2090 ca         1 TQU      -0.126200
     12 NAP         -0.0840     0.0080    -2.4450 na         1 TQU       0.474500
     13 CAG         -0.3580     0.7990    -3.5020 cc         1 TQU       0.290400
     14 NAI          0.4730     0.4900    -4.4650 nd         1 TQU      -0.698000
     15 CAE          1.2860    -0.4870    -4.0650 cd         1 TQU       0.605900
     16 NAK          0.9890    -0.8120    -2.8340 nc         1 TQU      -0.690800
     17 H1           1.9430     0.1390    -0.9280 ha         1 TQU       0.134000
     18 H2           3.9800     0.6350     0.6190 hn         1 TQU       0.271800
     19 H3           3.9750    -0.6360     1.7970 hn         1 TQU       0.271800
     20 H4           1.9290    -0.0000     3.3450 ha         1 TQU       0.110000
     21 H5          -0.5060    -0.0010     3.3820 ha         1 TQU       0.118000
     22 H6          -3.8140    -0.0010     0.1670 h4         1 TQU      -0.016900
     23 H7          -2.7120     0.0030    -2.0330 ha         1 TQU       0.119000
     24 H8          -1.1290     1.5580    -3.5460 h5         1 TQU       0.028100
     25 H9           2.0710    -0.9350    -4.6610 h5         1 TQU       0.024100
@<TRIPOS>BOND
     1     1     2 ar  
     2     1     7 ar  
     3     1    11 ar  
     4     2     3 ar  
     5     2    17 1   
     6     3     4 1   
     7     3     5 ar  
     8     4    18 1   
     9     4    19 1   
    10     5     6 ar  
    11     5    20 1   
    12     6     7 ar  
    13     6    21 1   
    14     7     8 ar  
    15     8     9 ar  
    16     9    10 ar  
    17     9    22 1   
    18    10    11 ar  
    19    10    23 1   
    20    11    12 1   
    21    12    13 1   
    22    12    16 1   
    23    13    14 2   
    24    13    24 1   
    25    14    15 1   
    26    15    16 2   
    27    15    25 1   
@<TRIPOS>SUBSTRUCTURE
     1 TQU         1 TEMP              0 ****  ****    0 ROOT
