@<TRIPOS>MOLECULE
TQV
   34    35     1     0     0
SMALL
bcc


@<TRIPOS>ATOM
      1 P          -0.3560    1.1220   -1.2630 p5        1 TQV      1.437800
      2 C1         -1.2980    0.0610    0.9960 ca        1 TQV      0.223100
      3 C2         -1.7460   -1.2720    0.8720 ca        1 TQV     -0.181000
      4 O1P         1.2510    1.4630   -1.3620 os        1 TQV     -0.561200
      5 C3         -2.7780   -1.7430    1.6750 ca        1 TQV     -0.125000
      6 O2P        -0.2280    0.4810    0.2920 os        1 TQV     -0.497500
      7 C4         -3.3720   -0.9100    2.6220 ca        1 TQV     -0.185000
      8 C5         -2.9280    0.4030    2.7610 ca        1 TQV     -0.124000
      9 C6         -1.8950    0.9060    1.9670 ca        1 TQV     -0.118300
     10 C7         -1.4380    2.3040    2.1270 c3        1 TQV     -0.051800
     11 C8          2.0950    0.4930   -1.9000 c3        1 TQV      0.226700
     12 C9          3.1870    0.0940   -0.9540 ca        1 TQV     -0.091300
     13 O3P        -0.6490   -0.0050   -2.1630 o         1 TQV     -0.811500
     14 O4P        -1.0910    2.3880   -1.1490 o         1 TQV     -0.811500
     15 C10         3.1180    0.3230    0.4210 ca        1 TQV     -0.071000
     16 C11         4.1550   -0.0750    1.2690 ca        1 TQV     -0.171000
     17 C12         5.2800   -0.7120    0.7530 ca        1 TQV     -0.118000
     18 C13         5.3780   -0.9550   -0.6160 ca        1 TQV     -0.228000
     19 C14         4.3360   -0.5520   -1.4600 ca        1 TQV      0.105100
     20 O15         4.3890   -0.7630   -2.8240 oh        1 TQV     -0.498100
     21 H2         -1.2780   -1.9250    0.1200 ha        1 TQV      0.149000
     22 H3         -3.1240   -2.7800    1.5620 ha        1 TQV      0.109000
     23 H4         -4.1870   -1.2850    3.2540 ha        1 TQV      0.106000
     24 H5         -3.3970    1.0590    3.5090 ha        1 TQV      0.109000
     25 H7         -0.3200    2.3410    2.1610 hc        1 TQV      0.047367
     26 H7A        -1.8420    2.7590    3.0640 hc        1 TQV      0.047367
     27 H7B        -1.7720    2.9200    1.2510 hc        1 TQV      0.047367
     28 H8          2.5820    0.9270   -2.8240 h1        1 TQV      0.056700
     29 H8A         1.5060   -0.4250   -2.1960 h1        1 TQV      0.056700
     30 H10         2.2240    0.8210    0.8350 ha        1 TQV      0.177000
     31 H11         4.0750    0.1140    2.3480 ha        1 TQV      0.122000
     32 H12         6.0940   -1.0270    1.4210 ha        1 TQV      0.113000
     33 H13         6.2620   -1.4580   -1.0300 ha        1 TQV      0.114000
     34 HO15        5.2190   -1.2200   -3.0160 ho        1 TQV      0.402000
@<TRIPOS>BOND
     1    1    4 1   
     2    1    6 1   
     3    1   13 1   
     4    1   14 1   
     5    2    3 ar  
     6    2    6 1   
     7    2    9 ar  
     8    3    5 ar  
     9    3   21 1   
    10    4   11 1   
    11    5    7 ar  
    12    5   22 1   
    13    7    8 ar  
    14    7   23 1   
    15    8    9 ar  
    16    8   24 1   
    17    9   10 1   
    18   10   25 1   
    19   10   26 1   
    20   10   27 1   
    21   11   12 1   
    22   11   28 1   
    23   11   29 1   
    24   12   15 ar  
    25   12   19 ar  
    26   15   16 ar  
    27   15   30 1   
    28   16   17 ar  
    29   16   31 1   
    30   17   18 ar  
    31   17   32 1   
    32   18   19 ar  
    33   18   33 1   
    34   19   20 1   
    35   20   34 1   
@<TRIPOS>SUBSTRUCTURE
     1 TQV         1 TEMP              0 ****  ****    0 ROOT
