@<TRIPOS>MOLECULE
molecule
   34    35     1     0     0
SMALL
bcc


@<TRIPOS>ATOM
      1 P            0.0000     0.0000     0.0000 p5         1 TQV       1.329800
      2 C1          -1.8880    -0.1090     1.6270 ca         1 TQV       0.188100
      3 C2          -2.5060    -1.3300     1.4070 ca         1 TQV      -0.135000
      4 O1P          1.6090     0.0000     0.0000 os         1 TQV      -0.610200
      5 C3          -3.8790    -1.4380     1.5190 ca         1 TQV      -0.131000
      6 O2P         -0.5370     0.0000     1.5180 os         1 TQV      -0.473500
      7 C4          -4.6360    -0.3290     1.8490 ca         1 TQV      -0.164000
      8 C5          -4.0210     0.8900     2.0690 ca         1 TQV      -0.131000
      9 C6          -2.6490     1.0040     1.9530 ca         1 TQV      -0.089300
     10 C7          -1.9810     2.3330     2.1930 c3         1 TQV      -0.040800
     11 C8           2.3880    -0.1050    -1.1930 c3         1 TQV       0.274700
     12 C9           3.8530    -0.0730    -0.8430 ca         1 TQV      -0.085300
     13 O3P         -0.4930    -1.2090    -0.6970 o          1 TQV      -0.807000
     14 O4P         -0.5380     1.3140    -0.7590 o          1 TQV      -0.807000
     15 C10          4.2460     0.0430     0.4760 ca         1 TQV      -0.076000
     16 C11          5.5890     0.0710     0.7990 ca         1 TQV      -0.161000
     17 C12          6.5440    -0.0160    -0.1970 ca         1 TQV      -0.127000
     18 C13          6.1570    -0.1310    -1.5180 ca         1 TQV      -0.199000
     19 C14          4.8090    -0.1670    -1.8430 ca         1 TQV       0.105100
     20 O15          4.4250    -0.2860    -3.1420 oh         1 TQV      -0.509100
     21 H2          -1.9130    -2.1990     1.1480 ha         1 TQV       0.159000
     22 H3          -4.3620    -2.3920     1.3470 ha         1 TQV       0.112000
     23 H4          -5.7120    -0.4160     1.9380 ha         1 TQV       0.105000
     24 H5          -4.6170     1.7570     2.3260 ha         1 TQV       0.112000
     25 H7          -2.5410     2.8900     2.9340 hc         1 TQV       0.043033
     26 H7A         -0.9720     2.1700     2.5510 hc         1 TQV       0.043033
     27 H7B         -1.9490     2.8940     1.2670 hc         1 TQV       0.043033
     28 H8           2.1550     0.7250    -1.8500 h1         1 TQV       0.053700
     29 H8A          2.1560    -1.0370    -1.6950 h1         1 TQV       0.053700
     30 H10          3.5000     0.1110     1.2590 ha         1 TQV       0.166000
     31 H11          5.8950     0.1610     1.8350 ha         1 TQV       0.119000
     32 H12          7.5960     0.0090     0.0590 ha         1 TQV       0.114000
     33 H13          6.9050    -0.2020    -2.2980 ha         1 TQV       0.119000
     34 HO15         4.8690    -1.0200    -3.5350 ho         1 TQV       0.410000
@<TRIPOS>BOND
     1     1     4 1
     2     1     6 1
     3     1    13 1
     4     1    14 1
     5     2     3 ar
     6     2     6 1
     7     2     9 ar
     8     3     5 ar
     9     4    11 1
    10     5     7 ar
    11     7     8 ar
    12     8     9 ar
    13     9    10 1
    14    11    12 1
    15    12    15 ar
    16    12    19 ar
    17    15    16 ar
    18    16    17 ar
    19    17    18 ar
    20    18    19 ar
    21    19    20 1
    22     3    21 1
    23     5    22 1
    24     7    23 1
    25     8    24 1
    26    10    25 1
    27    10    26 1
    28    10    27 1
    29    11    28 1
    30    11    29 1
    31    15    30 1
    32    16    31 1
    33    17    32 1
    34    18    33 1
    35    20    34 1
@<TRIPOS>SUBSTRUCTURE
     1 TQV         1 TEMP              0 ****  ****    0 ROOT
