@<TRIPOS>MOLECULE
TQX
   59    62     1     0     0
SMALL
bcc


@<TRIPOS>ATOM
      1 C01         0.0370    0.1420    0.1600 ca        1 TQX     -0.172300
      2 C02         1.4670    0.1500    0.0780 ca        1 TQX      0.396600
      3 C03         2.2200    0.1200    1.2880 ca        1 TQX     -0.138300
      4 C04         1.5340    0.0750    2.5280 ca        1 TQX     -0.103000
      5 C05         0.1610    0.0660    2.5750 ca        1 TQX     -0.156000
      6 C06        -0.5910    0.1020    1.3790 ca        1 TQX     -0.144000
      7 N07         2.0720    0.1880   -1.1600 nb        1 TQX     -0.703000
      8 C08         3.3980    0.1500   -1.2280 ca        1 TQX      0.481600
      9 C09         4.2530    0.0850   -0.0550 ca        1 TQX     -0.112600
     10 C10         3.6530    0.1210    1.1930 cp        1 TQX     -0.019000
     11 C11         4.0420    0.1950   -2.5780 c3        1 TQX     -0.176400
     12 C12         4.4260    0.1480    2.4460 cp        1 TQX     -0.038000
     13 C13         5.7390   -0.0730   -0.1880 c3        1 TQX      0.041400
     14 O14         6.2020    0.8940   -1.1370 os        1 TQX     -0.413600
     15 C15         5.1110   -1.0080    2.8390 ca        1 TQX     -0.106000
     16 C16         5.8000   -1.0370    4.0600 ca        1 TQX      0.097900
     17 C17         5.8080    0.1190    4.8790 ca        1 TQX      0.075100
     18 C18         5.1510    1.2860    4.4720 ca        1 TQX     -0.143300
     19 C19         4.4660    1.3050    3.2440 ca        1 TQX     -0.052300
     20 O20         6.4710   -0.0060    6.0890 os        1 TQX     -0.318900
     21 C21         6.8340    1.2360    6.6960 c3        1 TQX      0.130400
     22 C22         5.6700    2.2050    6.7300 c3        1 TQX     -0.112400
     23 C23         5.1940    2.5060    5.3240 c3        1 TQX     -0.023100
     24 C24         3.8040    2.5600    2.8110 c3        1 TQX     -0.053800
     25 C25         7.5590    1.3250   -0.9710 c3        1 TQX      0.165800
     26 C26         7.8630    2.0840   -2.2650 c3        1 TQX     -0.110767
     27 C27         7.6710    2.2760    0.2170 c3        1 TQX     -0.110767
     28 C28         8.5250    0.1620   -0.8180 c3        1 TQX     -0.110767
     29 F29         6.4490   -2.1540    4.4610 f         1 TQX     -0.129900
     30 C30         6.0990   -1.5440   -0.6000 c         1 TQX      0.909600
     31 O31         6.1120   -2.3890    0.3380 o         1 TQX     -0.817800
     32 O32         6.3740   -1.8030   -1.8000 o         1 TQX     -0.817800
     33 H01        -0.5480    0.1640   -0.7730 ha        1 TQX      0.136000
     34 H04         2.1260    0.0440    3.4560 ha        1 TQX      0.136000
     35 H05        -0.3650    0.0250    3.5390 ha        1 TQX      0.117000
     36 H06        -1.6890    0.0920    1.4390 ha        1 TQX      0.116000
     37 H11         4.5210    1.1970   -2.7140 hc        1 TQX      0.073700
     38 H11A        4.8500   -0.5860   -2.6290 hc        1 TQX      0.073700
     39 H11B        3.3090    0.0270   -3.4030 hc        1 TQX      0.073700
     40 H13         6.2280    0.1180    0.8090 h1        1 TQX      0.047700
     41 H15         5.1600   -1.8850    2.1550 ha        1 TQX      0.230000
     42 H21         7.1550    0.9350    7.7280 h1        1 TQX      0.049700
     43 H21A        7.7010    1.6740    6.1360 h1        1 TQX      0.049700
     44 H22         4.8320    1.7560    7.3240 hc        1 TQX      0.047700
     45 H22A        5.9850    3.1510    7.2400 hc        1 TQX      0.047700
     46 H23         5.8800    3.2580    4.8440 hc        1 TQX      0.048700
     47 H23A        4.1740    2.9720    5.3700 hc        1 TQX      0.048700
     48 H24         4.5010    3.4280    2.9260 hc        1 TQX      0.045033
     49 H24A        3.4860    2.5050    1.7400 hc        1 TQX      0.045033
     50 H24B        2.8960    2.7510    3.4370 hc        1 TQX      0.045033
     51 H26         7.7610    1.3930   -3.1350 hc        1 TQX      0.039256
     52 H26A        7.1450    2.9280   -2.3910 hc        1 TQX      0.039256
     53 H26B        8.9020    2.4860   -2.2270 hc        1 TQX      0.039256
     54 H27         7.5450    1.7250    1.1780 hc        1 TQX      0.039256
     55 H27A        8.6750    2.7640    0.2150 hc        1 TQX      0.039256
     56 H27B        6.8830    3.0630    0.1510 hc        1 TQX      0.039256
     57 H28         8.3650   -0.3560    0.1590 hc        1 TQX      0.039256
     58 H28A        8.3400   -0.5850   -1.6320 hc        1 TQX      0.039256
     59 H28B        9.5760    0.5300   -0.8690 hc        1 TQX      0.039256
@<TRIPOS>BOND
     1    1    2 ar  
     2    1    6 ar  
     3    1   33 1   
     4    2    3 ar  
     5    2    7 ar  
     6    3    4 ar  
     7    3   10 ar  
     8    4    5 ar  
     9    4   34 1   
    10    5    6 ar  
    11    5   35 1   
    12    6   36 1   
    13    7    8 ar  
    14    8    9 ar  
    15    8   11 1   
    16    9   10 ar  
    17    9   13 1   
    18   10   12 1   
    19   11   37 1   
    20   11   38 1   
    21   11   39 1   
    22   12   15 ar  
    23   12   19 ar  
    24   13   14 1   
    25   13   30 1   
    26   13   40 1   
    27   14   25 1   
    28   15   16 ar  
    29   15   41 1   
    30   16   17 ar  
    31   16   29 1   
    32   17   18 ar  
    33   17   20 1   
    34   18   19 ar  
    35   18   23 1   
    36   19   24 1   
    37   20   21 1   
    38   21   22 1   
    39   21   42 1   
    40   21   43 1   
    41   22   23 1   
    42   22   44 1   
    43   22   45 1   
    44   23   46 1   
    45   23   47 1   
    46   24   48 1   
    47   24   49 1   
    48   24   50 1   
    49   25   26 1   
    50   25   27 1   
    51   25   28 1   
    52   26   51 1   
    53   26   52 1   
    54   26   53 1   
    55   27   54 1   
    56   27   55 1   
    57   27   56 1   
    58   28   57 1   
    59   28   58 1   
    60   28   59 1   
    61   30   31 1   
    62   30   32 1   
@<TRIPOS>SUBSTRUCTURE
     1 TQX         1 TEMP              0 ****  ****    0 ROOT
