@<TRIPOS>MOLECULE
molecule
   59    62     1     0     0
SMALL
bcc


@<TRIPOS>ATOM
      1 C01          0.0000     0.0000     0.0000 ca         1 TQX      -0.169300
      2 C02          1.4060     0.0000     0.0000 ca         1 TQX       0.419600
      3 C03          2.0930     0.0000     1.2380 ca         1 TQX      -0.147300
      4 C04          1.3660    -0.0000     2.4350 ca         1 TQX      -0.100000
      5 C05          0.0040    -0.0010     2.3970 ca         1 TQX      -0.155000
      6 C06         -0.6750     0.0050     1.1820 ca         1 TQX      -0.140000
      7 N07          2.0940     0.0000    -1.1460 nb         1 TQX      -0.717000
      8 C08          3.4060    -0.0000    -1.1650 ca         1 TQX       0.483600
      9 C09          4.1560     0.0000     0.0050 ca         1 TQX      -0.120600
     10 C10          3.5110     0.0010     1.2350 cp         1 TQX      -0.003000
     11 C11          4.1200    -0.0010    -2.4920 c3         1 TQX      -0.153400
     12 C12          4.2780     0.0010     2.5000 cp         1 TQX      -0.034000
     13 C13          5.6620    -0.0020    -0.0610 c3         1 TQX       0.064400
     14 O14          6.0970     0.9510    -1.0340 os         1 TQX      -0.412600
     15 C15          4.6470    -1.2060     3.0960 ca         1 TQX      -0.078000
     16 C16          5.3610    -1.1980     4.2750 ca         1 TQX       0.100900
     17 C17          5.7170     0.0100     4.8750 ca         1 TQX       0.100100
     18 C18          5.3540     1.2080     4.2840 ca         1 TQX      -0.158300
     19 C19          4.6410     1.2050     3.0990 ca         1 TQX      -0.056300
     20 O20          6.4170    -0.0300     6.0400 os         1 TQX      -0.323900
     21 C21          7.0930     1.1580     6.4520 c3         1 TQX       0.143400
     22 C22          6.1080     2.3310     6.3680 c3         1 TQX      -0.126400
     23 C23          5.7270     2.5330     4.9000 c3         1 TQX      -0.024100
     24 C24          4.2500     2.5110     2.4560 c3         1 TQX      -0.050800
     25 C25          7.3700     1.5320    -0.7490 c3         1 TQX       0.155800
     26 C26          7.7340     2.5300    -1.8510 c3         1 TQX      -0.105433
     27 C27          7.3110     2.2580     0.5960 c3         1 TQX      -0.105433
     28 C28          8.4320     0.4320    -0.6890 c3         1 TQX      -0.105433
     29 F29          5.7170    -2.3660     4.8540 f          1 TQX      -0.135900
     30 C30          6.1460    -1.3740    -0.4500 c          1 TQX       0.877600
     31 O31          5.9430    -2.4160     0.3710 o          1 TQX      -0.828800
     32 O32          6.7200    -1.5370    -1.5010 o          1 TQX      -0.828800
     33 H01         -0.5440     0.0050    -0.9370 ha         1 TQX       0.135000
     34 H04          1.8840    -0.0050     3.3870 ha         1 TQX       0.133000
     35 H05         -0.5570     0.0030     3.3240 ha         1 TQX       0.114000
     36 H06         -1.7590     0.0040     1.1770 ha         1 TQX       0.114000
     37 H11          3.3960    -0.1000    -3.2920 hc         1 TQX       0.067033
     38 H11A         4.8140    -0.8320    -2.5280 hc         1 TQX       0.067033
     39 H11B         4.6630     0.9290    -2.6110 hc         1 TQX       0.067033
     40 H13          6.0660     0.2620     0.9090 h1         1 TQX       0.053700
     41 H15          4.4060    -2.1460     2.6130 ha         1 TQX       0.193000
     42 H21          7.4380     1.0450     7.4730 h1         1 TQX       0.050700
     43 H21A         7.9350     1.3430     5.7960 h1         1 TQX       0.050700
     44 H22          5.2170     2.0840     6.9330 hc         1 TQX       0.050700
     45 H22A         6.5940     3.2270     6.7340 hc         1 TQX       0.050700
     46 H23          4.8700     3.1940     4.8500 hc         1 TQX       0.052700
     47 H23A         6.5830     2.9340     4.3710 hc         1 TQX       0.052700
     48 H24          3.9640     2.3350     1.4260 hc         1 TQX       0.045367
     49 H24A         3.4140     2.9420     2.9940 hc         1 TQX       0.045367
     50 H24B         5.0900     3.1940     2.4860 hc         1 TQX       0.045367
     51 H26          8.7760     2.4080    -2.1190 hc         1 TQX       0.038367
     52 H26A         7.5680     3.5390    -1.4920 hc         1 TQX       0.038367
     53 H26B         7.1130     2.3490    -2.7200 hc         1 TQX       0.038367
     54 H27          7.2690     1.5300     1.3980 hc         1 TQX       0.038367
     55 H27A         8.1950     2.8730     0.7140 hc         1 TQX       0.038367
     56 H27B         6.4280     2.8840     0.6300 hc         1 TQX       0.038367
     57 H28          9.4080     0.8800    -0.5460 hc         1 TQX       0.038367
     58 H28A         8.4250    -0.1290    -1.6160 hc         1 TQX       0.038367
     59 H28B         8.2160    -0.2340     0.1380 hc         1 TQX       0.038367
@<TRIPOS>BOND
     1     6     1 ar
     2     1     2 ar
     3     1    33 1
     4     2     3 ar
     5     2     7 ar
     6     4     3 ar
     7     3    10 ar
     8     5     4 ar
     9     4    34 1
    10     6     5 ar
    11     5    35 1
    12     6    36 1
    13     7     8 ar
    14     8    11 1
    15     8     9 ar
    16    10     9 ar
    17     9    13 1
    18    10    12 1
    19    11    37 1
    20    11    38 1
    21    11    39 1
    22    15    12 ar
    23    12    19 ar
    24    14    13 1
    25    13    30 1
    26    13    40 1
    27    25    14 1
    28    15    16 ar
    29    15    41 1
    30    29    16 1
    31    16    17 ar
    32    17    20 1
    33    17    18 ar
    34    19    18 ar
    35    18    23 1
    36    19    24 1
    37    20    21 1
    38    21    22 1
    39    21    42 1
    40    21    43 1
    41    23    22 1
    42    22    44 1
    43    22    45 1
    44    23    46 1
    45    23    47 1
    46    24    48 1
    47    24    49 1
    48    24    50 1
    49    27    25 1
    50    26    25 1
    51    25    28 1
    52    26    51 1
    53    26    52 1
    54    26    53 1
    55    27    54 1
    56    27    55 1
    57    27    56 1
    58    28    57 1
    59    28    58 1
    60    28    59 1
    61    30    32 1
    62    30    31 1
@<TRIPOS>SUBSTRUCTURE
     1 TQX         1 TEMP              0 ****  ****    0 ROOT
