@<TRIPOS>MOLECULE
TR0
   57    60     1     0     0
SMALL
bcc


@<TRIPOS>ATOM
      1 CAA         0.2000   -0.9090   -0.4630 c3        1 TR0     -0.139400
      2 CAW         1.6160   -1.2680   -0.2700 cc        1 TR0      0.325600
      3 CAK         2.5220   -0.6040    0.6750 cc        1 TR0     -0.322600
      4 NAQ         2.3050   -2.2300   -0.9200 nd        1 TR0     -0.332300
      5 OAT         3.5480   -2.2440   -0.4940 os        1 TR0     -0.104100
      6 CAZ         3.7280   -1.2500    0.5010 cd        1 TR0      0.220000
      7 CAM         5.0760   -1.1040    1.0580 c3        1 TR0     -0.166700
      8 CAU         5.4600   -2.2670    1.9500 c         1 TR0      0.677100
      9 OAB         4.7990   -3.3230    2.0180 o         1 TR0     -0.627100
     10 N           6.5710   -2.1380    2.7930 n         1 TR0     -0.475800
     11 CD2         7.5040   -1.0250    2.6810 c3        1 TR0      0.066000
     12 CG          8.9250   -1.5580    2.9930 c3        1 TR0      0.135100
     13 OD1         9.6390   -1.5170    1.7740 oh        1 TR0     -0.587800
     14 CB          8.7370   -3.0040    3.4790 c3        1 TR0     -0.128400
     15 CA          7.2380   -3.3290    3.2990 c3        1 TR0      0.041700
     16 C           6.6340   -3.7960    4.6360 c         1 TR0      0.535100
     17 O           7.1940   -3.8390    5.7200 o         1 TR0     -0.417100
     18 NAR         5.2070   -4.2640    4.5630 n4        1 TR0     -0.676800
     19 CAL         4.8410   -5.3210    5.5640 c3        1 TR0      0.176100
     20 CA0         6.9510  -12.8850    4.3690 ca        1 TR0     -0.126000
     21 CAX         5.2300   -6.6790    5.0960 ca        1 TR0     -0.197300
     22 CAF         6.2900   -7.3590    5.7060 ca        1 TR0     -0.097500
     23 CA1         6.5340  -12.2640    2.0730 ca        1 TR0     -0.126000
     24 CAH         6.6200   -8.6470    5.2960 ca        1 TR0     -0.122000
     25 CAE         4.5040   -7.3000    4.0710 ca        1 TR0     -0.097500
     26 CA2         6.2010  -10.9730    2.4790 ca        1 TR0     -0.106500
     27 CAG         4.8380   -8.5850    3.6580 ca        1 TR0     -0.122000
     28 CAY         5.9000   -9.2750    4.2670 cp        1 TR0      0.034000
     29 CBA         6.2470  -10.6270    3.8380 cp        1 TR0     -0.081000
     30 CAJ         6.6260  -11.5940    4.7810 ca        1 TR0     -0.106500
     31 CAI         6.9080  -13.2220    3.0160 ca        1 TR0     -0.102000
     32 HAA1        0.1340    0.0530   -1.0320 hc        1 TR0      0.067033
     33 HAA2       -0.2920   -0.7720    0.5310 hc        1 TR0      0.067033
     34 HAA3       -0.3540   -1.6960   -1.0340 hc        1 TR0      0.067033
     35 HAK         2.2620    0.2160    1.3350 ha        1 TR0      0.179000
     36 HAM1        5.1340   -0.1370    1.6310 hc        1 TR0      0.108700
     37 HAM2        5.8240   -1.0630    0.2130 hc        1 TR0      0.108700
     38 HD21        7.4930   -0.5760    1.6480 h1        1 TR0      0.085700
     39 HD22        7.2130   -0.2390    3.4300 h1        1 TR0      0.085700
     40 HA          7.1110   -4.1920    2.5750 h1        1 TR0      0.111700
     41 HG          9.4260   -0.9250    3.7720 h1        1 TR0      0.076700
     42 HD1        10.5790   -1.6020    1.9830 ho        1 TR0      0.426000
     43 HB1C        9.0560   -3.1070    4.5450 hc        1 TR0      0.096200
     44 HB2C        9.3450   -3.7070    2.8550 hc        1 TR0      0.096200
     45 HAR         4.6050   -3.4430    4.6920 hn        1 TR0      0.475300
     46 HAL1        3.7210   -5.2640    5.7020 hx        1 TR0      0.110700
     47 HAL2        5.3430   -5.0670    6.5430 hx        1 TR0      0.110700
     48 HAJ         6.6530  -11.3380    5.8510 ha        1 TR0      0.134500
     49 HAI         7.1670  -14.2420    2.6930 ha        1 TR0      0.146000
     50 HAF         6.8610   -6.8810    6.5180 ha        1 TR0      0.141000
     51 HAE         3.6550   -6.7810    3.5990 ha        1 TR0      0.141000
     52 HA2         5.9110  -10.2220    1.7300 ha        1 TR0      0.134500
     53 HAH         7.4540   -9.1790    5.7810 ha        1 TR0      0.159500
     54 HAG         4.2570   -9.0730    2.8590 ha        1 TR0      0.159500
     55 HA0         7.2420  -13.6400    5.1150 ha        1 TR0      0.145000
     56 HAR2        5.0300   -4.6270    3.6060 hn        1 TR0      0.475300
     57 HA1         6.4990  -12.5270    1.0050 ha        1 TR0      0.145000
@<TRIPOS>BOND
     1    1    2 1
     2    1   32 1
     3    1   33 1
     4    1   34 1
     5    2    3 1
     6    2    4 2
     7    3    6 2
     8    3   35 1
     9    4    5 1
    10    5    6 1
    11    6    7 1
    12    7    8 1
    13    7   36 1
    14    7   37 1
    15    8    9 2
    16    8   10 1
    17   10   11 1
    18   10   15 1
    19   11   12 1
    20   11   38 1
    21   11   39 1
    22   12   13 1
    23   12   14 1
    24   12   41 1
    25   13   42 1
    26   14   15 1
    27   14   43 1
    28   14   44 1
    29   15   16 1
    30   15   40 1
    31   16   17 2
    32   16   18 1
    33   18   19 1
    34   18   45 1
    35   18   56 1
    36   19   21 1
    37   19   46 1
    38   19   47 1
    39   20   30 ar
    40   20   31 ar
    41   20   55 1
    42   21   22 ar
    43   21   25 ar
    44   22   24 ar
    45   22   50 1
    46   23   26 ar
    47   23   31 ar
    48   23   57 1
    49   24   28 ar
    50   24   53 1
    51   25   27 ar
    52   25   51 1
    53   26   29 ar
    54   26   52 1
    55   27   28 ar
    56   27   54 1
    57   28   29 1
    58   29   30 ar
    59   30   48 1
    60   31   49 1
@<TRIPOS>SUBSTRUCTURE
     1 TR0         1 TEMP              0 ****  ****    0 ROOT
