@<TRIPOS>MOLECULE
molecule
   63    64     1     0     0
SMALL
bcc


@<TRIPOS>ATOM
      1 N            0.0000     0.0000     0.0000 n7         1 TR1      -0.768200
      2 CA           1.4690     0.0000     0.0000 c3         1 TR1       0.103500
      3 C            1.9710     0.0000     1.4200 c          1 TR1       0.661100
      4 O            1.1830     0.0010     2.3410 o          1 TR1      -0.577100
      5 C41         -6.1550    -1.7250    -0.3230 cp         1 TR1      -0.036000
      6 C42         -6.8930    -2.4240     0.6300 ca         1 TR1      -0.117000
      7 C43         -6.8110    -1.0990    -1.3810 ca         1 TR1      -0.117000
      8 C44         -8.2660    -2.4990     0.5180 ca         1 TR1      -0.129000
      9 C45         -8.1830    -1.1850    -1.4880 ca         1 TR1      -0.129000
     10 C46         -8.9110    -1.8800    -0.5380 ca         1 TR1      -0.128000
     11 C47         -1.9220    -1.4850     0.0070 ca         1 TR1      -0.087300
     12 C48         -2.5090    -1.6590    -1.2330 ca         1 TR1      -0.112500
     13 C49         -2.7080    -1.3950     1.1410 ca         1 TR1      -0.112500
     14 C50         -3.8820    -1.7380    -1.3460 ca         1 TR1      -0.120500
     15 C51         -4.0830    -1.4660     1.0390 ca         1 TR1      -0.120500
     16 C52         -4.6780    -1.6410    -0.2080 cp         1 TR1      -0.037000
     17 CM2         -0.4220    -1.4010     0.1240 c3         1 TR1       0.191100
     18 CB           1.9790     1.2470    -0.7220 c3         1 TR1       0.035700
     19 SG           1.5040     1.1720    -2.4710 sh         1 TR1      -0.438900
     20 N2           3.2960     0.0000     1.6670 ns         1 TR1      -0.585900
     21 CA2          3.7850     0.0010     3.0460 c3         1 TR1       0.044000
     22 C2           5.2920     0.0010     3.0470 c          1 TR1       0.654100
     23 O2           5.8980    -0.0000     1.9960 o          1 TR1      -0.621100
     24 N3           5.9660     0.0010     4.2130 ns         1 TR1      -0.567900
     25 CA3          7.4310     0.0010     4.2120 c3         1 TR1       0.079700
     26 CB3          7.9410     1.4420     4.2120 c3         1 TR1      -0.086700
     27 CG1          7.4330     2.1640     5.4590 c3         1 TR1      -0.091100
     28 CG2          9.4720     1.4410     4.2110 c3         1 TR1      -0.091100
     29 C3           7.9330    -0.7080     5.4430 c          1 TR1       0.633100
     30 O3           7.1490    -1.1660     6.2390 o          1 TR1      -0.553000
     31 OE           9.2540    -0.8310     5.6550 os         1 TR1      -0.431900
     32 CM3          9.7370    -1.5150     6.8410 c3         1 TR1       0.143700
     33 HN          -0.3340     0.3730    -0.8670 hn         1 TR1       0.376800
     34 HA           1.8300    -0.8850    -0.5100 h1         1 TR1       0.058700
     35 H42         -6.3890    -2.9110     1.4570 ha         1 TR1       0.134000
     36 H43         -6.2420    -0.5550    -2.1250 ha         1 TR1       0.134000
     37 H44         -8.8410    -3.0420     1.2590 ha         1 TR1       0.129000
     38 H45         -8.6930    -0.7010    -2.3120 ha         1 TR1       0.129000
     39 H46         -9.9890    -1.9430    -0.6240 ha         1 TR1       0.128000
     40 H48         -1.8890    -1.7320    -2.1190 ha         1 TR1       0.137000
     41 H49         -2.2440    -1.2590     2.1100 ha         1 TR1       0.137000
     42 H50         -4.3400    -1.8750    -2.3190 ha         1 TR1       0.134000
     43 H51         -4.6970    -1.3960     1.9290 ha         1 TR1       0.134000
     44 HM21        -0.1130    -1.7870     1.0880 h1         1 TR1       0.045700
     45 HM22         0.0350    -1.9870    -0.6630 h1         1 TR1       0.045700
     46 HB1          1.5450     2.1300    -0.2680 h1         1 TR1       0.072700
     47 HB2          3.0580     1.2940    -0.6430 h1         1 TR1       0.072700
     48 HSG          2.1120     2.1460    -3.1370 hs         1 TR1       0.232800
     49 HN2          3.9460    -0.0200     0.9060 hn         1 TR1       0.337500
     50 HA21         3.4250    -0.8840     3.5570 h1         1 TR1       0.075200
     51 HA22         3.4240     0.8850     3.5570 h1         1 TR1       0.075200
     52 HN3          5.4660    -0.0290     5.0790 hn         1 TR1       0.339500
     53 HA3          7.7920    -0.5100     3.3280 h1         1 TR1       0.109700
     54 HB3          7.5810     1.9520     3.3270 hc         1 TR1       0.074700
     55 HG11         6.3770     2.3790     5.3470 hc         1 TR1       0.041367
     56 HG12         7.5830     1.5350     6.3280 hc         1 TR1       0.041367
     57 HG13         7.9790     3.0920     5.5870 hc         1 TR1       0.041367
     58 HG21         9.8340     1.4110     5.2320 hc         1 TR1       0.041367
     59 HG22         9.8340     2.3400     3.7270 hc         1 TR1       0.041367
     60 HG23         9.8330     0.5720     3.6750 hc         1 TR1       0.041367
     61 HM31         9.3770    -2.5370     6.8410 h1         1 TR1       0.051033
     62 HM32        10.8200    -1.5150     6.8420 h1         1 TR1       0.051033
     63 HM33         9.3750    -1.0050     7.7250 h1         1 TR1       0.051033
@<TRIPOS>BOND
     1     1     2 1
     2     1    17 1
     3     1    33 1
     4     2     3 1
     5     2    18 1
     6     2    34 1
     7     3     4 2
     8     3    20 1
     9     5     6 ar
    10     5     7 ar
    11     5    16 1
    12     6     8 ar
    13     6    35 1
    14     7     9 ar
    15     7    36 1
    16     8    10 ar
    17     8    37 1
    18     9    10 ar
    19     9    38 1
    20    10    39 1
    21    11    12 ar
    22    11    13 ar
    23    11    17 1
    24    12    14 ar
    25    12    40 1
    26    13    15 ar
    27    13    41 1
    28    14    16 ar
    29    14    42 1
    30    15    16 ar
    31    15    43 1
    32    17    44 1
    33    17    45 1
    34    18    19 1
    35    18    46 1
    36    18    47 1
    37    19    48 1
    38    20    21 1
    39    20    49 1
    40    21    22 1
    41    21    50 1
    42    21    51 1
    43    22    23 2
    44    22    24 1
    45    24    25 1
    46    24    52 1
    47    25    26 1
    48    25    29 1
    49    25    53 1
    50    26    27 1
    51    26    28 1
    52    26    54 1
    53    27    55 1
    54    27    56 1
    55    27    57 1
    56    28    58 1
    57    28    59 1
    58    28    60 1
    59    29    30 2
    60    29    31 1
    61    31    32 1
    62    32    61 1
    63    32    62 1
    64    32    63 1
@<TRIPOS>SUBSTRUCTURE
     1 TR1         1 TEMP              0 ****  ****    0 ROOT
