@<TRIPOS>MOLECULE
TR2
   15    16     1     0     0
SMALL
bcc


@<TRIPOS>ATOM
      1 C10        -0.0850   -0.0540   -0.0500 ca        1 TR2     -0.238400
      2 O01         1.9290   -0.2060   -1.3070 oh        1 TR2     -0.491100
      3 C02         1.3230   -0.1530   -0.0770 ca        1 TR2      0.203100
      4 C03         2.0250   -0.1920    1.1250 ca        1 TR2     -0.341300
      5 C04         1.2930   -0.1300    2.3380 ca        1 TR2      0.434200
      6 N05        -0.0350   -0.0360    2.4210 nb        1 TR2     -0.653000
      7 C06        -0.7150    0.0020    1.2410 ca        1 TR2      0.442100
      8 C07        -2.1550    0.1010    1.0930 cc        1 TR2     -0.242800
      9 C08        -2.5200    0.1160   -0.2240 cd        1 TR2     -0.160400
     10 S09        -1.2220    0.0150   -1.2830 ss        1 TR2      0.105500
     11 HO01        2.8860   -0.2720   -1.1660 ho        1 TR2      0.429000
     12 H03         3.1180   -0.2680    1.1450 ha        1 TR2      0.145000
     13 H04         1.8330   -0.1600    3.3020 h4        1 TR2      0.024100
     14 H07        -2.8270    0.1560    1.9530 ha        1 TR2      0.171000
     15 H08        -3.5460    0.1840   -0.5900 h4        1 TR2      0.174000
@<TRIPOS>BOND
     1    1    3 ar  
     2    1    7 ar  
     3    1   10 1   
     4    2    3 1   
     5    2   11 1   
     6    3    4 ar  
     7    4    5 ar  
     8    4   12 1   
     9    5    6 ar  
    10    5   13 1   
    11    6    7 ar  
    12    7    8 1   
    13    8    9 2   
    14    8   14 1   
    15    9   10 1   
    16    9   15 1   
@<TRIPOS>SUBSTRUCTURE
     1 TR2         1 TEMP              0 ****  ****    0 ROOT
