@<TRIPOS>MOLECULE
molecule
   15    16     1     0     0
SMALL
bcc


@<TRIPOS>ATOM
      1 C10          0.0000     0.0000     0.0000 ca         1 TR2      -0.165400
      2 O01          2.0980     0.0020    -1.1670 oh         1 TR2      -0.514100
      3 C02          1.4030     0.0000     0.0000 ca         1 TR2       0.173100
      4 C03          2.0670     0.0000     1.2190 ca         1 TR2      -0.278300
      5 C04          1.3260    -0.0020     2.3880 ca         1 TR2       0.438200
      6 N05          0.0160    -0.0030     2.3660 nb         1 TR2      -0.671000
      7 C06         -0.6850    -0.0020     1.2150 ca         1 TR2       0.460100
      8 C07         -2.1250    -0.0020     1.0230 cc         1 TR2      -0.238800
      9 C08         -2.5170     0.0000    -0.2380 cd         1 TR2      -0.076400
     10 S09         -1.1470     0.0080    -1.3330 ss         1 TR2      -0.077500
     11 HO01         2.3010    -0.8850    -1.4130 ho         1 TR2       0.428000
     12 H03          3.1500     0.0010     1.2550 ha         1 TR2       0.152000
     13 H04          1.8400    -0.0020     3.3410 h4         1 TR2       0.029100
     14 H07         -2.8240    -0.0070     1.8500 ha         1 TR2       0.165000
     15 H08         -3.5530    -0.0030    -0.5560 h4         1 TR2       0.176000
@<TRIPOS>BOND
     1     1     3 ar
     2     1     7 ar
     3     1    10 1
     4     2     3 1
     5     2    11 1
     6     3     4 ar
     7     4     5 ar
     8     4    12 1
     9     5     6 ar
    10     5    13 1
    11     6     7 ar
    12     7     8 1
    13     8     9 2
    14     8    14 1
    15     9    10 1
    16     9    15 1
@<TRIPOS>SUBSTRUCTURE
     1 TR2         1 TEMP              0 ****  ****    0 ROOT
