@<TRIPOS>MOLECULE
TR3
   48    51     1     0     0
SMALL
bcc


@<TRIPOS>ATOM
      1 C1           0.0000     0.0000     0.0000 ca         1 TR3      -0.169000
      2 C2           1.3640     0.0000     0.0000 ca         1 TR3       0.005000
      3 C3           2.0610     0.0000     1.2120 ca         1 TR3      -0.234900
      4 C4           1.3530     0.0010     2.4280 ca         1 TR3      -0.159200
      5 C5          -0.0380     0.0020     2.4120 ca         1 TR3      -0.132000
      6 C6          -0.7090     0.0010     1.2030 ca         1 TR3      -0.054400
      7 N10          3.5690     0.0010     2.8680 nc         1 TR3      -0.655100
      8 N11          2.2900     0.0020     3.4330 na         1 TR3       0.609800
      9 C12          3.4830    -0.0010     1.5640 cd         1 TR3       0.457800
     10 C13          1.4550     0.0080     7.5150 ca         1 TR3      -0.104000
     11 C14          2.5530    -0.6810     7.0370 ca         1 TR3      -0.083500
     12 C15          2.8330    -0.6860     5.6840 ca         1 TR3      -0.105500
     13 C16          2.0090     0.0030     4.8030 ca         1 TR3      -0.128200
     14 C17          0.9050     0.6950     5.2870 ca         1 TR3      -0.105500
     15 C18          0.6310     0.6950     6.6400 ca         1 TR3      -0.083500
     16 S24          4.8330    -0.0020     0.4310 ss         1 TR3      -0.293300
     17 C25          6.2810    -0.0010     1.5250 c3         1 TR3       0.125000
     18 C26         -2.7950    -0.6680     2.1300 c          1 TR3       0.565100
     19 N27         -2.1070     0.0020     1.1840 ns         1 TR3      -0.037100
     20 O28         -2.2030    -1.2040     3.0440 o          1 TR3      -0.628100
     21 C30         -6.3450    -1.7000     3.1200 c3         1 TR3       0.146800
     22 C31         -4.8260    -1.5650     3.2380 c3         1 TR3      -0.014400
     23 C32         -4.2970    -0.7530     2.0530 c3         1 TR3      -0.125700
     24 C33         -4.7030    -1.4460     0.7480 c3         1 TR3      -0.014400
     25 C34         -6.2270    -1.5840     0.7030 c3         1 TR3       0.146800
     26 N35         -6.6830    -2.3690     1.8570 n7         1 TR3      -0.576200
     27 H1          -0.5370    -0.0010    -0.9410 ha         1 TR3       0.108000
     28 H2           1.9060    -0.0010    -0.9380 ha         1 TR3       0.111000
     29 H5          -0.5930     0.0030     3.3420 ha         1 TR3       0.159000
     30 H13          1.2370     0.0100     8.5760 ha         1 TR3       0.104000
     31 H14          3.1960    -1.2180     7.7240 ha         1 TR3       0.104500
     32 H15          3.6950    -1.2260     5.3100 ha         1 TR3       0.121500
     33 H17          0.2600     1.2330     4.6030 ha         1 TR3       0.121500
     34 H18         -0.2290     1.2340     7.0180 ha         1 TR3       0.104500
     35 H25          7.1850     0.0210     0.9280 h1         1 TR3       0.037700
     36 H25A         6.2500     0.8720     2.1650 h1         1 TR3       0.037700
     37 H25B         6.2740    -0.8960     2.1350 h1         1 TR3       0.037700
     38 HN27        -2.5970     0.5340     0.4920 hn         1 TR3       0.170500
     39 H30         -6.7190    -2.2870     3.9500 h1         1 TR3       0.005450
     40 H30A        -6.7950    -0.7140     3.1370 h1         1 TR3       0.005450
     41 H31         -4.3750    -2.5510     3.2290 hc         1 TR3       0.029950
     42 H31A        -4.5790    -1.0570     4.1620 hc         1 TR3       0.029950
     43 H32         -4.7230     0.2420     2.0790 hc         1 TR3       0.035700
     44 H33         -4.2500    -2.4290     0.7060 hc         1 TR3       0.029950
     45 H33A        -4.3690    -0.8520    -0.0940 hc         1 TR3       0.029950
     46 H34         -6.6780    -0.5990     0.7370 h1         1 TR3       0.005450
     47 H34A        -6.5160    -2.0870    -0.2110 h1         1 TR3       0.005450
     48 HN35        -7.6740    -2.4980     1.8030 hn         1 TR3       0.251800
@<TRIPOS>BOND
     1     1     2 ar  
     2     1     6 ar  
     3     1    27 1   
     4     2     3 ar  
     5     2    28 1   
     6     3     4 ar  
     7     3     9 1   
     8     4     5 ar  
     9     4     8 1   
    10     5     6 ar  
    11     5    29 1   
    12     6    19 1   
    13     7     8 1   
    14     7     9 2   
    15     8    13 1   
    16     9    16 1   
    17    10    11 ar  
    18    10    15 ar  
    19    10    30 1   
    20    11    12 ar  
    21    11    31 1   
    22    12    13 ar  
    23    12    32 1   
    24    13    14 ar  
    25    14    15 ar  
    26    14    33 1   
    27    15    34 1   
    28    16    17 1   
    29    17    35 1   
    30    17    36 1   
    31    17    37 1   
    32    18    19 1   
    33    18    20 2   
    34    18    23 1   
    35    19    38 1   
    36    21    22 1   
    37    21    26 1   
    38    21    39 1   
    39    21    40 1   
    40    22    23 1   
    41    22    41 1   
    42    22    42 1   
    43    23    24 1   
    44    23    43 1   
    45    24    25 1   
    46    24    44 1   
    47    24    45 1   
    48    25    26 1   
    49    25    46 1   
    50    25    47 1   
    51    26    48 1   
@<TRIPOS>SUBSTRUCTURE
     1 TR3         1 TEMP              0 ****  ****    0 ROOT
