@<TRIPOS>MOLECULE
TR4
   26    27     1     0     0
SMALL
bcc


@<TRIPOS>ATOM
      1 C01          0.0000     0.0000     0.0000 c3         1 TR4       0.121000
      2 S02          1.8140     0.0000     0.0000 ss         1 TR4      -0.376400
      3 C03          2.2100     0.0000     1.7160 cc         1 TR4       0.572600
      4 N04          1.3570    -0.0020     2.7110 nd         1 TR4      -0.684800
      5 N05          2.0540    -0.0010     3.9220 na         1 TR4       0.598300
      6 C06          3.3830    -0.0000     3.6790 cd         1 TR4      -0.068700
      7 N07          4.3870    -0.0010     4.6280 nv         1 TR4      -0.412200
      8 C08          3.5550    -0.0060     2.2970 cc         1 TR4      -0.264300
      9 C09          4.7980    -0.0120     1.5860 cg         1 TR4       0.292800
     10 N10          5.7900    -0.0320     1.0330 n1         1 TR4      -0.416800
     11 C11          1.4660    -0.0030     5.1920 ca         1 TR4      -0.145200
     12 C12          0.2800     0.6860     5.4110 ca         1 TR4      -0.108000
     13 C13         -0.2990     0.6830     6.6650 ca         1 TR4      -0.080000
     14 C14          0.3020    -0.0050     7.7020 ca         1 TR4      -0.096000
     15 C15          1.4840    -0.6920     7.4900 ca         1 TR4      -0.080000
     16 C16          2.0640    -0.6970     6.2360 ca         1 TR4      -0.108000
     17 H01         -0.3610     0.1110    -1.0150 h1         1 TR4       0.038367
     18 H01A        -0.3610     0.8240     0.6040 h1         1 TR4       0.038367
     19 H01B        -0.3610    -0.9350     0.4120 h1         1 TR4       0.038367
     20 HN07         5.3380    -0.1370     4.3500 hn         1 TR4       0.285300
     21 HN0A         4.1650     0.1610     5.5900 hn         1 TR4       0.285300
     22 H12         -0.1910     1.2250     4.5980 ha         1 TR4       0.122000
     23 H13         -1.2240     1.2200     6.8350 ha         1 TR4       0.109000
     24 H14         -0.1520    -0.0070     8.6860 ha         1 TR4       0.108000
     25 H15          1.9520    -1.2300     8.3050 ha         1 TR4       0.109000
     26 H16          2.9870    -1.2390     6.0680 ha         1 TR4       0.122000
@<TRIPOS>BOND
     1     1     2 1   
     2     1    17 1   
     3     1    18 1   
     4     1    19 1   
     5     2     3 1   
     6     3     4 2   
     7     3     8 1   
     8     4     5 1   
     9     5     6 1   
    10     5    11 1   
    11     6     7 1   
    12     6     8 2   
    13     7    20 1   
    14     7    21 1   
    15     8     9 1   
    16     9    10 3   
    17    11    12 ar  
    18    11    16 ar  
    19    12    13 ar  
    20    12    22 1   
    21    13    14 ar  
    22    13    23 1   
    23    14    15 ar  
    24    14    24 1   
    25    15    16 ar  
    26    15    25 1   
    27    16    26 1   
@<TRIPOS>SUBSTRUCTURE
     1 TR4         1 TEMP              0 ****  ****    0 ROOT
