@<TRIPOS>MOLECULE
TR5
   42    45     1     0     0
SMALL
bcc


@<TRIPOS>ATOM
      1 O2          1.4610    0.4340   -2.4220 o         1 TR5     -0.927167
      2 PB          2.8180    0.0320   -1.8960 p5        1 TR5      1.353900
      3 O3          2.9460   -1.0810   -0.9120 o         1 TR5     -0.927167
      4 O1          3.8690    0.0940   -2.9940 o         1 TR5     -0.927167
      5 O5'         3.1380    1.4700   -0.9940 os        1 TR5     -0.569200
      6 C5'         3.9210    2.4370   -1.5610 c3        1 TR5      0.214400
      7 C4'         3.1000    3.5610   -2.2370 c3        1 TR5      0.062100
      8 O4'         4.0060    4.4900   -2.8800 os        1 TR5     -0.439600
      9 C3'         2.1210    3.0550   -3.3170 c3        1 TR5      0.073100
     10 O3'         0.7810    3.2320   -2.9160 oh        1 TR5     -0.655800
     11 C2'         2.4260    3.8870   -4.5760 c3        1 TR5      0.109100
     12 O2'         1.5740    4.9950   -4.7790 oh        1 TR5     -0.615800
     13 C1'         3.8750    4.4200   -4.3020 c3        1 TR5      0.213800
     14 N9          4.8940    3.5690   -4.8970 na        1 TR5     -0.164000
     15 C8          4.9420    2.1630   -4.7010 cc        1 TR5     -0.022200
     16 C7          6.2020    1.6850   -5.0430 cd        1 TR5     -0.292000
     17 C5          6.9670    2.8220   -5.4460 ca        1 TR5     -0.353400
     18 C4          6.1680    4.0030   -5.3240 ca        1 TR5      0.461800
     19 N3          6.7300    5.2180   -5.6450 nb        1 TR5     -0.722000
     20 C2          8.0290    5.1140   -6.0200 ca        1 TR5      0.626900
     21 N1          8.8820    4.0400   -6.1220 nb        1 TR5     -0.784000
     22 C6          8.3210    2.8270   -5.8240 ca        1 TR5      0.512800
     23 N61         8.9050    1.5180   -5.9270 na        1 TR5      0.021200
     24 C62        10.3580    1.5160   -5.7710 c3        1 TR5      0.025600
     25 N71         8.2870    0.4390   -5.3330 nc        1 TR5     -0.446400
     26 C72         6.9790    0.4470   -4.9790 cd        1 TR5      0.498700
     27 N73         6.3130   -0.6870   -4.5600 nh        1 TR5     -0.937500
     28 H3          4.5270    2.9390   -0.7490 h1        1 TR5      0.005700
     29 H4          4.6350    1.9970   -2.3120 h1        1 TR5      0.005700
     30 H5          2.5560    4.1650   -1.4640 h1        1 TR5      0.052700
     31 H6          2.3060    1.9450   -3.5020 h1        1 TR5      0.158700
     32 H7          0.5130    2.3530   -2.5690 ho        1 TR5      0.485000
     33 H8          2.3610    3.2750   -5.5120 h1        1 TR5      0.078700
     34 H9          1.1120    5.1570   -3.9460 ho        1 TR5      0.421000
     35 H10         4.0240    5.4700   -4.6790 h2        1 TR5      0.093700
     36 H11         4.0890    1.5680   -4.2920 h4        1 TR5      0.288000
     37 H12         8.5060    6.0810   -6.2800 h5        1 TR5      0.015100
     38 H13        10.7550    0.4760   -5.9120 h1        1 TR5      0.031367
     39 H14        10.7830    2.1790   -6.5690 h1        1 TR5      0.031367
     40 H15        10.6910    1.8930   -4.7670 h1        1 TR5      0.031367
     41 H16         6.8630   -1.4430   -4.2280 hn        1 TR5      0.454800
     42 H17         5.4410   -0.5180   -4.0580 hn        1 TR5      0.454800
@<TRIPOS>BOND
     1    1    2 1   
     2    2    3 1   
     3    2    4 1   
     4    2    5 1   
     5    5    6 1   
     6    6    7 1   
     7    6   28 1   
     8    6   29 1   
     9    7    8 1   
    10    7    9 1   
    11    7   30 1   
    12    8   13 1   
    13    9   10 1   
    14    9   11 1   
    15    9   31 1   
    16   10   32 1   
    17   11   12 1   
    18   11   13 1   
    19   11   33 1   
    20   12   34 1   
    21   13   14 1   
    22   13   35 1   
    23   14   15 1   
    24   14   18 1   
    25   15   16 2   
    26   15   36 1   
    27   16   17 1   
    28   16   26 1   
    29   17   18 ar  
    30   17   22 ar  
    31   18   19 ar  
    32   19   20 ar  
    33   20   21 ar  
    34   20   37 1   
    35   21   22 ar  
    36   22   23 1   
    37   23   24 1   
    38   23   25 1   
    39   24   38 1   
    40   24   39 1   
    41   24   40 1   
    42   25   26 2   
    43   26   27 1   
    44   27   41 1   
    45   27   42 1   
@<TRIPOS>SUBSTRUCTURE
     1 TR5         1 TEMP              0 ****  ****    0 ROOT
