@<TRIPOS>MOLECULE
molecule
   43    46     1     0     0
SMALL
bcc


@<TRIPOS>ATOM
      1 O2           0.0000     0.0000     0.0000 o          1 TR5      -0.811500
      2 PB           1.4800     0.0000     0.0000 p5         1 TR5       1.187900
      3 O3           2.0160     0.0000     1.5190 o          1 TR5      -0.811500
      4 O1           2.0170     1.3150    -0.7580 o          1 TR5      -0.811500
      5 O5'          2.0170    -1.3140    -0.7580 os         1 TR5      -0.569200
      6 C5'          1.6280    -2.6390    -0.3900 c3         1 TR5       0.224400
      7 C4'          2.3180    -3.6480    -1.3110 c3         1 TR5       0.114100
      8 O4'          3.7370    -3.6270    -1.0820 os         1 TR5      -0.384600
      9 C3'          1.8240    -5.0720    -0.9930 c3         1 TR5       0.081100
     10 O3'          1.2030    -5.6540    -2.1410 oh         1 TR5      -0.583800
     11 C2'          3.1110    -5.8460    -0.6180 c3         1 TR5       0.084100
     12 O2'          3.0990    -7.1600    -1.1800 oh         1 TR5      -0.572800
     13 C1'          4.2160    -4.9760    -1.2730 c3         1 TR5       0.244800
     14 N9           5.4980    -5.1710    -0.5920 na         1 TR5      -0.111000
     15 C8           5.9790    -4.3600     0.4230 cc         1 TR5      -0.046200
     16 C7           7.1810    -4.8070     0.8350 cd         1 TR5      -0.306000
     17 C5           7.4340    -5.9770    -0.0030 ca         1 TR5      -0.408400
     18 C4           6.3750    -6.1780    -0.8670 ca         1 TR5       0.559800
     19 N3           6.5180    -7.2310    -1.6770 nb         1 TR5      -0.745000
     20 C2           7.6070    -7.9750    -1.6030 ca         1 TR5       0.724900
     21 N1           8.6240    -7.7790    -0.7690 nb         1 TR5      -0.813000
     22 C6           8.5730    -6.7580     0.0790 ca         1 TR5       0.589800
     23 N61          9.5120    -6.3910     1.0100 na         1 TR5      -0.033800
     24 C62         10.7450    -7.1710     1.1420 c3         1 TR5       0.079600
     25 N71          9.3040    -5.2770     1.8350 nc         1 TR5      -0.264400
     26 C72          8.2500    -4.5010     1.8030 cd         1 TR5       0.171700
     27 N73          8.1400    -3.4140     2.6640 nz         1 TR5      -0.735300
     28 H3           0.5540    -2.7400    -0.4860 h1         1 TR5       0.027200
     29 H4           1.9190    -2.8290     0.6360 h1         1 TR5       0.027200
     30 H5           2.1100    -3.4100    -2.3480 h1         1 TR5       0.089700
     31 H6           1.1390    -5.0530    -0.1540 h1         1 TR5       0.056700
     32 H7           0.2950    -5.8250    -1.9540 ho         1 TR5       0.402000
     33 H8           3.2380    -5.8800     0.4570 h1         1 TR5       0.049700
     34 H9           2.6680    -7.7520    -0.5850 ho         1 TR5       0.398000
     35 H10          4.2990    -5.2020    -2.3290 h2         1 TR5       0.110700
     36 H11          5.4660    -3.4940     0.8240 h4         1 TR5       0.206000
     37 H12          7.6770    -8.8180    -2.2800 h5         1 TR5       0.060100
     38 H13         10.4990    -8.1930     1.4030 h1         1 TR5       0.054367
     39 H14         11.2830    -7.1570     0.2020 h1         1 TR5       0.054367
     40 H15         11.3640    -6.7390     1.9190 h1         1 TR5       0.054367
     41 H16          7.3330    -3.5280     3.2440 hn         1 TR5       0.451800
     42 H17          8.9580    -3.3590     3.2380 hn         1 TR5       0.451800
     43 H733         8.0510    -2.5730     2.1290 hn         1 TR5       0.451800
@<TRIPOS>BOND
     1    12    11 1
     2    20    19 ar
     3    20    21 ar
     4    10     9 1
     5    19    18 ar
     6    21    22 ar
     7    11     9 1
     8    11    13 1
     9     9     7 1
    10    18    17 ar
    11    18    14 1
    12    22    17 ar
    13    22    23 1
    14    24    23 1
    15    13    14 1
    16    13     8 1
    17    17    16 1
    18    14    15 1
    19    23    25 1
    20     7     6 1
    21     7     8 1
    22     6     5 1
    23    16    15 2
    24    16    26 1
    25    25    26 2
    26    26    27 1
    27     5     2 1
    28     1     2 1
    29     4     2 1
    30     2     3 1
    31     6    28 1
    32     6    29 1
    33     7    30 1
    34     9    31 1
    35    10    32 1
    36    11    33 1
    37    12    34 1
    38    13    35 1
    39    15    36 1
    40    20    37 1
    41    24    38 1
    42    24    39 1
    43    24    40 1
    44    27    41 1
    45    27    42 1
    46    43    27 1
@<TRIPOS>SUBSTRUCTURE
     1 TR5         1 TEMP              0 ****  ****    0 ROOT
