@<TRIPOS>MOLECULE
molecule
   45    49     1     0     0
SMALL
bcc


@<TRIPOS>ATOM
      1 C01          0.0000     0.0000     0.0000 ca         1 TR6      -0.066000
      2 C02          1.3810     0.0000     0.0000 ca         1 TR6      -0.192000
      3 C03          2.0760     0.0000     1.1990 ca         1 TR6       0.155900
      4 F04          3.4260     0.0010     1.1960 f          1 TR6      -0.137900
      5 C05          1.3870    -0.0010     2.4010 ca         1 TR6      -0.218000
      6 C06          0.0040    -0.0010     2.4060 ca         1 TR6       0.179900
      7 F07         -0.6680    -0.0010     3.5770 f          1 TR6      -0.112900
      8 C08         -0.6940     0.0050     1.2020 ca         1 TR6       0.084600
      9 N09         -2.0950     0.0050     1.2030 na         1 TR6      -0.487500
     10 C10         -2.7540    -1.2050     1.1980 ca         1 TR6       0.700200
     11 N11         -2.0670    -2.3420     1.1920 nb         1 TR6      -0.791000
     12 C12         -2.6740    -3.5170     1.1880 ca         1 TR6       0.579200
     13 N13         -1.9110    -4.6730     1.1820 nh         1 TR6      -0.683300
     14 C14         -0.4600    -4.3530     1.1820 c3         1 TR6       0.184300
     15 C15          0.2200    -5.6310     0.6420 cx         1 TR6      -0.129200
     16 C16         -0.2980    -6.9850     1.1310 cx         1 TR6       0.005500
     17 N17          0.5890    -8.1470     0.9880 nz         1 TR6      -0.774600
     18 C18         -0.8690    -6.3450    -0.1840 cx         1 TR6      -0.129200
     19 C19         -2.1150    -5.4400    -0.0740 c3         1 TR6       0.184300
     20 C20         -4.0690    -3.6170     1.1880 ca         1 TR6      -0.056400
     21 C21         -4.8240    -2.4740     1.1940 ca         1 TR6      -0.031000
     22 C22         -4.1590    -1.2410     1.1990 ca         1 TR6      -0.283900
     23 C23         -4.9030     0.0270     1.2060 c          1 TR6       0.560900
     24 C24         -4.1140     1.2700     1.2110 cc         1 TR6      -0.217400
     25 C25         -2.7370     1.1830     1.2150 cd         1 TR6       0.039000
     26 C26         -4.7800     2.5800     1.2180 c          1 TR6       0.887800
     27 O27         -6.1270     2.6510     1.2200 o          1 TR6      -0.806800
     28 O28         -4.1180     3.6000     1.2220 o          1 TR6      -0.806800
     29 O29         -6.1230     0.0480     1.2070 o          1 TR6      -0.467100
     30 F30         -4.6650    -4.8290     1.1830 f          1 TR6      -0.146900
     31 H011        -0.5420     0.0020    -0.9380 ha         1 TR6       0.159000
     32 H021         1.9220    -0.0040    -0.9390 ha         1 TR6       0.149000
     33 H051         1.9320    -0.0010     3.3370 ha         1 TR6       0.162000
     34 H141        -0.1210    -4.1440     2.1900 h1         1 TR6       0.092450
     35 H142        -0.2590    -3.5150     0.5270 h1         1 TR6       0.092450
     36 H151         1.1680    -5.5780     0.1200 hc         1 TR6       0.103700
     37 H161        -0.9630    -6.9360     1.9840 hx         1 TR6       0.185700
     38 H171         1.1150    -8.0630     0.1400 hn         1 TR6       0.453467
     39 H172         0.0410    -8.9830     0.9600 hn         1 TR6       0.453467
     40 H181        -0.4950    -6.6650    -1.1490 hc         1 TR6       0.103700
     41 H191        -3.0130    -6.0420    -0.0050 h1         1 TR6       0.092450
     42 H192        -2.1670    -4.7670    -0.9210 h1         1 TR6       0.092450
     43 H211        -5.9060    -2.5230     1.1940 ha         1 TR6       0.187000
     44 H251        -2.1550     2.0960     1.2190 h4         1 TR6       0.196000
     45 H173         1.2130    -8.1880     1.7690 hn         1 TR6       0.453467
@<TRIPOS>BOND
     1    30    20 1
     2    29    23 2
     3    21    20 ar
     4    21    22 ar
     5    17    16 1
     6    20    12 ar
     7     7     6 1
     8    16    18 1
     9    16    15 1
    10    23    22 1
    11    23    24 1
    12    28    26 1
    13    22    10 ar
    14    19    13 1
    15    19    18 1
    16    12    13 1
    17    12    11 ar
    18    26    24 1
    19    26    27 1
    20    13    14 1
    21    24    25 2
    22    18    15 1
    23    10    11 ar
    24    10     9 1
    25     6     5 ar
    26     6     8 ar
    27    25     9 1
    28     9     8 1
    29    14    15 1
    30     5     3 ar
    31     8     1 ar
    32     3     4 1
    33     3     2 ar
    34     1     2 ar
    35     1    31 1
    36     2    32 1
    37     5    33 1
    38    14    34 1
    39    14    35 1
    40    15    36 1
    41    16    37 1
    42    17    38 1
    43    17    39 1
    44    18    40 1
    45    19    41 1
    46    19    42 1
    47    21    43 1
    48    25    44 1
    49    45    17 1
@<TRIPOS>SUBSTRUCTURE
     1 TR6         1 TEMP              0 ****  ****    0 ROOT
