@<TRIPOS>MOLECULE
TR6
   45    49     1     0     0
SMALL
bcc


@<TRIPOS>ATOM
      1 C01          0.0000     0.0000     0.0000 ca         1 TR6      -0.027000
      2 C02          1.3810     0.0000     0.0000 ca         1 TR6      -0.156000
      3 C03          2.0760     0.0000     1.1990 ca         1 TR6       0.134900
      4 F04          3.4260     0.0010     1.1960 f          1 TR6      -0.125900
      5 C05          1.3870    -0.0010     2.4010 ca         1 TR6      -0.176000
      6 C06          0.0040    -0.0010     2.4060 ca         1 TR6       0.164900
      7 F07         -0.6680    -0.0010     3.5770 f          1 TR6      -0.109900
      8 C08         -0.6940     0.0050     1.2020 ca         1 TR6      -0.066400
      9 N09         -2.0950     0.0050     1.2030 na         1 TR6       0.013500
     10 C10         -2.7540    -1.2050     1.1980 ca         1 TR6       0.488200
     11 N11         -2.0670    -2.3420     1.1920 nb         1 TR6      -0.681000
     12 C12         -2.6740    -3.5170     1.1880 ca         1 TR6       0.474200
     13 N13         -1.9110    -4.6730     1.1820 nh         1 TR6      -0.493300
     14 C14         -0.4600    -4.3530     1.1820 c3         1 TR6       0.181800
     15 C15          0.2200    -5.6310     0.6420 cx         1 TR6      -0.082200
     16 C16         -0.2980    -6.9850     1.1310 cx         1 TR6      -0.195500
     17 N17          0.5890    -8.1470     0.9880 nz         1 TR6       0.150400
     18 C18         -0.8690    -6.3450    -0.1840 cx         1 TR6      -0.082200
     19 C19         -2.1150    -5.4400    -0.0740 c3         1 TR6       0.181800
     20 C20         -4.0690    -3.6170     1.1880 ca         1 TR6      -0.100400
     21 C21         -4.8240    -2.4740     1.1940 ca         1 TR6       0.022000
     22 C22         -4.1590    -1.2410     1.1990 ca         1 TR6      -0.296900
     23 C23         -4.9030     0.0270     1.2060 c          1 TR6       0.600900
     24 C24         -4.1140     1.2700     1.2110 cc         1 TR6      -0.181400
     25 C25         -2.7370     1.1830     1.2150 cd         1 TR6      -0.149000
     26 C26         -4.7800     2.5800     1.2180 c          1 TR6       0.969800
     27 O27         -6.1270     2.6510     1.2200 o          1 TR6      -0.853300
     28 O28         -4.1180     3.6000     1.2220 o          1 TR6      -0.853300
     29 O29         -6.1230     0.0480     1.2070 o          1 TR6      -0.491100
     30 F30         -4.6650    -4.8290     1.1830 f          1 TR6      -0.129900
     31 H011        -0.5420     0.0020    -0.9380 ha         1 TR6       0.123000
     32 H021         1.9220    -0.0040    -0.9390 ha         1 TR6       0.123000
     33 H051         1.9320    -0.0010     3.3370 ha         1 TR6       0.137000
     34 H141        -0.1210    -4.1440     2.1900 h1         1 TR6       0.055450
     35 H142        -0.2590    -3.5150     0.5270 h1         1 TR6       0.055450
     36 H151         1.1680    -5.5780     0.1200 hc         1 TR6       0.075700
     37 H161        -0.9630    -6.9360     1.9840 hx         1 TR6       0.156700
     38 H171         1.1150    -8.0630     0.1400 hn         1 TR6       0.212133
     39 H172         0.0410    -8.9830     0.9600 hn         1 TR6       0.212133
     40 H181        -0.4950    -6.6650    -1.1490 hc         1 TR6       0.075700
     41 H191        -3.0130    -6.0420    -0.0050 h1         1 TR6       0.055450
     42 H192        -2.1670    -4.7670    -0.9210 h1         1 TR6       0.055450
     43 H211        -5.9060    -2.5230     1.1940 ha         1 TR6       0.148000
     44 H251        -2.1550     2.0960     1.2190 h4         1 TR6       0.168000
     45 H173         1.2130    -8.1880     1.7690 hn         1 TR6       0.212133
@<TRIPOS>BOND
     1     1     2 ar  
     2     1     8 ar  
     3     1    31 1   
     4     2     3 ar  
     5     2    32 1   
     6     3     4 1   
     7     3     5 ar  
     8     5     6 ar  
     9     5    33 1   
    10     6     7 1   
    11     6     8 ar  
    12     8     9 1   
    13     9    10 1   
    14     9    25 1   
    15    10    11 ar  
    16    10    22 ar  
    17    11    12 ar  
    18    12    13 1   
    19    12    20 ar  
    20    13    14 1   
    21    13    19 1   
    22    14    15 1   
    23    14    34 1   
    24    14    35 1   
    25    15    16 1   
    26    15    18 1   
    27    15    36 1   
    28    16    17 1   
    29    16    18 1   
    30    16    37 1   
    31    17    38 1   
    32    17    39 1   
    33    17    45 1   
    34    18    19 1   
    35    18    40 1   
    36    19    41 1   
    37    19    42 1   
    38    20    21 ar  
    39    20    30 1   
    40    21    22 ar  
    41    21    43 1   
    42    22    23 1   
    43    23    24 1   
    44    23    29 2   
    45    24    25 2   
    46    24    26 1   
    47    25    44 1   
    48    26    27 1   
    49    26    28 1   
@<TRIPOS>SUBSTRUCTURE
     1 TR6         1 TEMP              0 ****  ****    0 ROOT
