@<TRIPOS>MOLECULE
molecule
   31    32     1     0     0
SMALL
bcc


@<TRIPOS>ATOM
      1 N            0.0000     0.0000     0.0000 nz         1 TR7      -0.795600
      2 CA           1.4690     0.0000     0.0000 c3         1 TR7       0.044500
      3 C            1.9720     0.0000     1.4210 c          1 TR7       0.574100
      4 OXT          1.2460     0.3590     2.3180 os         1 TR7      -0.507900
      5 CB           1.9800     1.2480    -0.7220 c3         1 TR7      -0.004200
      6 CG           1.5820     1.1880    -2.1740 cc         1 TR7      -0.257400
      7 CD1          2.3300     0.7290    -3.1890 cd         1 TR7      -0.035100
      8 CD2          0.3010     1.6120    -2.7450 ca         1 TR7      -0.128800
      9 NE1          1.6360     0.8300    -4.3640 na         1 TR7      -0.161400
     10 CE2          0.3900     1.3670    -4.1270 ca         1 TR7      -0.030200
     11 CE3         -0.8660     2.1590    -2.2090 ca         1 TR7      -0.140000
     12 CZ2         -0.6910     1.6750    -4.9460 ca         1 TR7      -0.113000
     13 CZ3         -1.9180     2.4530    -3.0320 ca         1 TR7      -0.117000
     14 CH2         -1.8330     2.2130    -4.3960 ca         1 TR7      -0.096000
     15 O            3.2250    -0.3970     1.6900 o          1 TR7      -0.396000
     16 CAJ          3.6410    -0.3710     3.0800 c3         1 TR7       0.108700
     17 HN1         -0.3340    -0.2230    -0.9170 hn         1 TR7       0.463467
     18 HN2         -0.3340     0.9050     0.2650 hn         1 TR7       0.463467
     19 HA           1.8300    -0.8850    -0.5100 hx         1 TR7       0.129700
     20 HB1C         3.0590     1.2940    -0.6460 hc         1 TR7       0.092200
     21 HB2C         1.5480     2.1310    -0.2660 hc         1 TR7       0.092200
     22 HAJ1         4.3800     0.2600     2.6020 h1         1 TR7       0.098033
     23 HAJ2         3.7230    -0.2710     4.1560 h1         1 TR7       0.098033
     24 HAJ3         3.8100    -1.4030     2.8000 h1         1 TR7       0.098033
     25 HD1          3.3360     0.3370    -3.0920 h4         1 TR7       0.181000
     26 HE1          1.9810     0.5530    -5.2610 hn         1 TR7       0.319700
     27 HE3         -0.9390     2.3480    -1.1450 ha         1 TR7       0.103000
     28 HZ2         -0.6350     1.4920    -6.0120 ha         1 TR7       0.149000
     29 HZ3         -2.8240     2.8770    -2.6160 ha         1 TR7       0.147000
     30 HH2         -2.6740     2.4520    -5.0360 ha         1 TR7       0.155000
     31 HN3         -0.3340    -0.6810     0.6530 hn         1 TR7       0.463467
@<TRIPOS>BOND
     1     1     2 1
     2     2     3 1
     3     2     5 1
     4     3     4 1
     5     3    15 2
     6     4    16 1
     7     5     6 1
     8     6     7 2
     9     6     8 1
    10     7     9 1
    11     8    10 ar
    12     8    11 ar
    13     9    10 1
    14    10    12 ar
    15    11    13 ar
    16    12    14 ar
    17    13    14 ar
    18     1    17 1
    19     1    18 1
    20     2    19 1
    21     5    20 1
    22     5    21 1
    23    16    22 1
    24    16    23 1
    25    16    24 1
    26     7    25 1
    27     9    26 1
    28    11    27 1
    29    12    28 1
    30    13    29 1
    31    14    30 1
    32    31     1 1
@<TRIPOS>SUBSTRUCTURE
     1 TR7         1 TEMP              0 ****  ****    0 ROOT
