@<TRIPOS>MOLECULE
molecule
   19    19     1     0     0
SMALL
bcc


@<TRIPOS>ATOM
      1 C1           0.0000     0.0000     0.0000 c3         1 TR9      -0.184400
      2 C2           1.5320     0.0000     0.0000 c3         1 TR9       0.061100
      3 C3           2.0440     0.0000     1.4140 c          1 TR9       0.554300
      4 C4           1.3450     0.6310     2.4650 ce         1 TR9      -0.186400
      5 C5           0.1260     1.1970     2.2600 cf         1 TR9       0.035900
      6 C6          -0.4680     1.1250     0.9020 c          1 TR9       0.531300
      7 C7           1.9610     0.6780     3.8390 c3         1 TR9      -0.042900
      8 O1          -0.5290     1.8120     3.2700 oh         1 TR9      -0.480100
      9 O2           2.0070    -1.1650    -0.6770 oh         1 TR9      -0.574800
     10 O3           3.0910    -0.5620     1.6600 o          1 TR9      -0.489100
     11 O4          -1.2900     1.9280     0.5310 o          1 TR9      -0.486100
     12 H1          -0.3650    -0.9470     0.3780 hc         1 TR9       0.088200
     13 H2           1.8900     0.8870    -0.5090 h1         1 TR9       0.063700
     14 H3           1.5350    -0.1070     4.4520 hc         1 TR9       0.058700
     15 H4           3.0310     0.5330     3.7600 hc         1 TR9       0.058700
     16 H5          -1.3850     1.4290     3.3680 ho         1 TR9       0.434000
     17 H6           2.5040    -0.9080    -1.4350 ho         1 TR9       0.412000
     18 H7           1.7590     1.6410     4.2930 hc         1 TR9       0.058700
     19 H8          -0.3650     0.1640    -1.0070 hc         1 TR9       0.088200
@<TRIPOS>BOND
     1     1     2 1
     2     1     6 1
     3     1    12 1
     4     2     3 1
     5     2     9 1
     6     2    13 1
     7     3     4 1
     8     3    10 2
     9     4     5 2
    10     4     7 1
    11     5     6 1
    12     5     8 1
    13     6    11 2
    14     7    14 1
    15     7    15 1
    16     7    18 1
    17     8    16 1
    18     9    17 1
    19     1    19 1
@<TRIPOS>SUBSTRUCTURE
     1 TR9         1 TEMP              0 ****  ****    0 ROOT
