@<TRIPOS>MOLECULE
TR9
   19    19     1     0     0
SMALL
bcc


@<TRIPOS>ATOM
      1 C1         -0.0390    0.0160   -0.0310 c3        1 TR9     -0.176400
      2 C2          1.4800    0.1390   -0.0240 c3        1 TR9      0.055100
      3 C3          2.0570   -0.0940    1.3630 c         1 TR9      0.542300
      4 C4          1.3710    0.5890    2.4700 ce        1 TR9     -0.186400
      5 C5          0.0940    1.0190    2.3040 cf        1 TR9      0.037900
      6 C6         -0.6840    0.8180    1.0510 c         1 TR9      0.546300
      7 C7          2.1190    0.7750    3.7320 c3        1 TR9     -0.050900
      8 O1         -0.5280    1.6660    3.3400 oh        1 TR9     -0.478100
      9 O2          1.9690   -0.7840   -0.9830 oh        1 TR9     -0.591800
     10 O3          3.0650   -0.7950    1.5060 o         1 TR9     -0.519100
     11 O4         -1.8260    1.2840    0.9570 o         1 TR9     -0.518100
     12 H1         -0.4300    0.3370   -1.0340 hc        1 TR9      0.102700
     13 H2          1.7860    1.1760   -0.3530 h1        1 TR9      0.073700
     14 H3          2.6840    1.7410    3.7000 hc        1 TR9      0.061367
     15 H4          2.8500   -0.0590    3.8780 hc        1 TR9      0.061367
     16 H5         -1.4370    1.8800    3.0620 ho        1 TR9      0.446000
     17 H6          2.8120   -1.1350   -0.6590 ho        1 TR9      0.432000
     18 H7          1.4190    0.8090    4.6040 hc        1 TR9      0.061367
     19 H8         -0.3290   -1.0630    0.1030 hc        1 TR9      0.102700
@<TRIPOS>BOND
     1    1    2 1   
     2    1    6 1   
     3    1   12 1   
     4    1   19 1   
     5    2    3 1   
     6    2    9 1   
     7    2   13 1   
     8    3    4 1   
     9    3   10 2   
    10    4    5 2   
    11    4    7 1   
    12    5    6 1   
    13    5    8 1   
    14    6   11 2   
    15    7   14 1   
    16    7   15 1   
    17    7   18 1   
    18    8   16 1   
    19    9   17 1   
@<TRIPOS>SUBSTRUCTURE
     1 TR9         1 TEMP              0 ****  ****    0 ROOT
