@<TRIPOS>MOLECULE
molecule
   15    14     1     0     0
SMALL
bcc


@<TRIPOS>ATOM
      1 CA           0.0000     0.0000     0.0000 ce         1 TRA      -0.642200
      2 CB           1.3430     0.0000     0.0000 cf         1 TRA       0.115600
      3 CG           2.0960     0.0000     1.3040 c3         1 TRA      -0.236200
      4 CAC         -0.7380    -0.2080     1.2630 c          1 TRA       0.899800
      5 CBC          2.0820     0.0010    -1.2790 c          1 TRA       0.910800
      6 CGC          2.3860    -1.4200     1.7180 c          1 TRA       0.984600
      7 OA1         -0.1310    -0.4890     2.2860 o          1 TRA      -0.893800
      8 OA2         -1.9560    -0.1000     1.2830 o          1 TRA      -0.893800
      9 OB1          1.4700     0.0010    -2.3390 o          1 TRA      -0.876300
     10 OB2          3.3030     0.0010    -1.2800 o          1 TRA      -0.876300
     11 OG1          2.0150    -2.3470     1.0170 o          1 TRA      -0.893300
     12 OG2          2.9960    -1.6430     2.7490 o          1 TRA      -0.893300
     13 HA          -0.2040     0.8380     0.6560 ha         1 TRA       0.235000
     14 HG1          3.0290     0.5380     1.1830 hc         1 TRA       0.028700
     15 HG2          1.4980     0.4830     2.0670 hc         1 TRA       0.028700
@<TRIPOS>BOND
     1     1     2 2
     2     1     4 1
     3     1    13 1
     4     2     3 1
     5     2     5 1
     6     3     6 1
     7     3    14 1
     8     3    15 1
     9     4     7 1
    10     4     8 1
    11     5     9 1
    12     5    10 1
    13     6    11 1
    14     6    12 1
@<TRIPOS>SUBSTRUCTURE
     1 TRA         1 TEMP              0 ****  ****    0 ROOT
