@<TRIPOS>MOLECULE
TRA
   15    14     1     0     0
SMALL
bcc


@<TRIPOS>ATOM
      1 CA         -0.0210    0.1110    0.0930 ce        1 TRA     -0.264200
      2 CB          1.3010   -0.1410    0.1120 cf        1 TRA     -0.076400
      3 CG          2.0890   -0.4290    1.3390 c3        1 TRA     -0.136200
      4 CAC        -1.0360    0.2200    1.1860 c         1 TRA      0.906800
      5 CBC         2.0710    0.0910   -1.1780 c         1 TRA      0.904800
      6 CGC         2.7610   -1.7890    1.5500 c         1 TRA      0.921600
      7 OA1        -0.7450    0.6190    2.3590 o         1 TRA     -0.910800
      8 OA2        -2.2630   -0.0050    0.8930 o         1 TRA     -0.910800
      9 OB1         1.7290   -0.4800   -2.2620 o         1 TRA     -0.898300
     10 OB2         3.0220    0.9410   -1.1830 o         1 TRA     -0.898300
     11 OG1         2.2440   -2.8890    1.1920 o         1 TRA     -0.904800
     12 OG2         3.8610   -1.7910    2.2090 o         1 TRA     -0.904800
     13 HA         -0.4820    0.3000   -0.8950 ha        1 TRA      0.084000
     14 HG1         2.9060    0.3440    1.3850 hc        1 TRA      0.043700
     15 HG2         1.4190   -0.2830    2.2330 hc        1 TRA      0.043700
@<TRIPOS>BOND
     1    1    2 2   
     2    1    4 1   
     3    1   13 1   
     4    2    3 1   
     5    2    5 1   
     6    3    6 1   
     7    3   14 1   
     8    3   15 1   
     9    4    7 1   
    10    4    8 1   
    11    5    9 1   
    12    5   10 1   
    13    6   11 1   
    14    6   12 1   
@<TRIPOS>SUBSTRUCTURE
     1 TRA         1 TEMP              0 ****  ****    0 ROOT
