@<TRIPOS>MOLECULE
TRB
   41    43     1     0     0
SMALL
bcc


@<TRIPOS>ATOM
      1 N1          0.1400    1.0010   -0.0220 n         1 TRB     -0.402100
      2 C1A         1.3970    0.3830   -0.0750 ca        1 TRB     -0.000400
      3 C2         -0.3000    1.0670    1.3140 c         1 TRB      0.516400
      4 S2         -1.6790    1.6870    1.8020 s         1 TRB     -0.515400
      5 N3          0.7000    0.4580    2.1120 n         1 TRB     -0.290000
      6 C3A         1.7640    0.0410    1.2890 ca        1 TRB      0.019600
      7 C4          0.6470    0.5160    3.5470 c3        1 TRB      0.099000
      8 C5          1.5080   -0.5580    4.2660 c3        1 TRB      0.187500
      9 N6          2.9230   -0.3060    4.0070 n3        1 TRB     -0.758600
     10 C7          3.4360   -1.0750    2.8880 c3        1 TRB      0.227100
     11 C7A         2.9710   -0.6130    1.5380 ca        1 TRB     -0.054300
     12 C8          3.7980   -0.8970    0.4410 ca        1 TRB     -0.131000
     13 C9          3.4330   -0.5560   -0.8640 ca        1 TRB      0.024400
     14 CL9         4.4860   -0.9350   -2.1450 cl        1 TRB     -0.088400
     15 C10         2.2250    0.0890   -1.1520 ca        1 TRB     -0.129000
     16 C11         1.0690   -0.5500    5.7290 c3        1 TRB     -0.105100
     17 C12         3.7960   -0.3200    5.1700 c3        1 TRB      0.221000
     18 C13         5.1710    0.2080    4.9090 c2        1 TRB     -0.189200
     19 C14         6.2310   -0.1080    5.6700 c2        1 TRB     -0.115400
     20 C15         7.5690    0.4780    5.4090 c3        1 TRB     -0.061400
     21 C16         6.1530   -1.0470    6.8150 c3        1 TRB     -0.061400
     22 HN1        -0.3740    1.3540   -0.7890 hn        1 TRB      0.367500
     23 H41        -0.4340    0.3710    3.8470 h1        1 TRB      0.078700
     24 H42         0.9720    1.5430    3.8860 h1        1 TRB      0.078700
     25 H5          1.2170   -1.5740    3.8500 h1        1 TRB      0.045700
     26 H71         3.1620   -2.1730    2.9740 h1        1 TRB      0.051700
     27 H72         4.5650   -1.0160    2.9050 h1        1 TRB      0.051700
     28 H8          4.7590   -1.4070    0.6180 ha        1 TRB      0.151000
     29 H10         1.9460    0.3500   -2.1820 ha        1 TRB      0.158000
     30 H111        1.6530   -1.2920    6.3250 hc        1 TRB      0.048367
     31 H112        1.1900    0.4610    6.1860 hc        1 TRB      0.048367
     32 H113       -0.0110   -0.8320    5.7830 hc        1 TRB      0.048367
     33 H121        3.8700   -1.3590    5.6120 h1        1 TRB      0.041200
     34 H122        3.3360    0.3530    5.9540 h1        1 TRB      0.041200
     35 H13         5.2720    0.9210    4.0740 ha        1 TRB      0.140000
     36 H151        8.3180   -0.3370    5.2420 hc        1 TRB      0.042867
     37 H152        7.9000    1.0800    6.2920 hc        1 TRB      0.042867
     38 H153        7.5630    1.1420    4.5110 hc        1 TRB      0.042867
     39 H161        5.3310   -0.7500    7.5130 hc        1 TRB      0.042867
     40 H162        5.9430   -2.0850    6.4530 hc        1 TRB      0.042867
     41 H163        7.1120   -1.0640    7.3890 hc        1 TRB      0.042867
@<TRIPOS>BOND
     1    1    2 1   
     2    1    3 1   
     3    1   22 1   
     4    2    6 ar  
     5    2   15 ar  
     6    3    4 2   
     7    3    5 1   
     8    5    6 1   
     9    5    7 1   
    10    6   11 ar  
    11    7    8 1   
    12    7   23 1   
    13    7   24 1   
    14    8    9 1   
    15    8   16 1   
    16    8   25 1   
    17    9   10 1   
    18    9   17 1   
    19   10   11 1   
    20   10   26 1   
    21   10   27 1   
    22   11   12 ar  
    23   12   13 ar  
    24   12   28 1   
    25   13   14 1   
    26   13   15 ar  
    27   15   29 1   
    28   16   30 1   
    29   16   31 1   
    30   16   32 1   
    31   17   18 1   
    32   17   33 1   
    33   17   34 1   
    34   18   19 2   
    35   18   35 1   
    36   19   20 1   
    37   19   21 1   
    38   20   36 1   
    39   20   37 1   
    40   20   38 1   
    41   21   39 1   
    42   21   40 1   
    43   21   41 1   
@<TRIPOS>SUBSTRUCTURE
     1 TRB         1 TEMP              0 ****  ****    0 ROOT
