@<TRIPOS>MOLECULE
TRC
   17    16     1     0     0
SMALL
bcc


@<TRIPOS>ATOM
      1 C1         -0.2990   -0.1440    0.1630 c         1 TRC      0.908600
      2 O1          0.5870   -1.0220    0.4000 o         1 TRC     -0.908800
      3 O2         -0.9190    0.4060    1.1410 o         1 TRC     -0.908800
      4 C2         -0.7310    0.2400   -1.2510 c3        1 TRC     -0.150900
      5 C3          0.2780    0.1130   -2.3810 c3        1 TRC     -0.123700
      6 C4         -0.4150   -0.1740   -3.7150 c3        1 TRC     -0.150900
      7 C5         -1.0510   -1.5400   -3.9570 c         1 TRC      0.908600
      8 O3         -0.3560   -2.4910   -4.4460 o         1 TRC     -0.908800
      9 O4         -2.3080   -1.6910   -3.8000 o         1 TRC     -0.908800
     10 C6          1.0880    1.4120   -2.5970 c         1 TRC      0.912600
     11 O5          0.4990    2.5370   -2.7040 o         1 TRC     -0.907800
     12 O6          2.3540    1.3470   -2.7310 o         1 TRC     -0.907800
     13 H21        -1.1000    1.2990   -1.2200 hc        1 TRC      0.020700
     14 H22        -1.6090   -0.4210   -1.4900 hc        1 TRC      0.020700
     15 H3          0.9940   -0.7160   -2.1390 hc        1 TRC      0.062700
     16 H41        -1.2130    0.6030   -3.8560 hc        1 TRC      0.020700
     17 H42         0.3480   -0.0290   -4.5270 hc        1 TRC      0.020700
@<TRIPOS>BOND
     1    1    2 1   
     2    1    3 1   
     3    1    4 1   
     4    4    5 1   
     5    4   13 1   
     6    4   14 1   
     7    5    6 1   
     8    5   10 1   
     9    5   15 1   
    10    6    7 1   
    11    6   16 1   
    12    6   17 1   
    13    7    8 1   
    14    7    9 1   
    15   10   11 1   
    16   10   12 1   
@<TRIPOS>SUBSTRUCTURE
     1 TRC         1 TEMP              0 ****  ****    0 ROOT
