@<TRIPOS>MOLECULE
molecule
   17    16     1     0     0
SMALL
bcc


@<TRIPOS>ATOM
      1 C1           0.0000     0.0000     0.0000 c          1 TRC       0.900600
      2 O1           1.2080     0.0000     0.0000 o          1 TRC      -0.903050
      3 O2          -0.6710     0.0000     1.1630 o          1 TRC      -0.903050
      4 C2          -0.7530    -0.0030    -1.3050 c3         1 TRC      -0.155900
      5 C3           0.2400    -0.0030    -2.4670 c3         1 TRC      -0.128700
      6 C4          -0.5240    -0.0060    -3.7920 c3         1 TRC      -0.155900
      7 C5          -1.2880    -1.2960    -3.9290 c          1 TRC       0.900600
      8 O3          -1.1470    -2.1730    -3.1090 o          1 TRC      -0.903050
      9 O4          -2.1270    -1.4740    -4.9620 o          1 TRC      -0.903050
     10 C6           1.1060     1.2270    -2.3890 c          1 TRC       0.934600
     11 O5           0.6710     2.2410    -1.8950 o          1 TRC      -0.912800
     12 O6           2.3590     1.1980    -2.8680 o          1 TRC      -0.912800
     13 H21         -1.3770     0.8800    -1.3640 hc         1 TRC       0.021700
     14 H22         -1.3750    -0.8890    -1.3610 hc         1 TRC       0.021700
     15 H3           0.8640    -0.8870    -2.4080 hc         1 TRC       0.055700
     16 H41         -1.2160     0.8270    -3.8110 hc         1 TRC       0.021700
     17 H42          0.1760     0.0880    -4.6130 hc         1 TRC       0.021700
@<TRIPOS>BOND
     1     1     2 1
     2     1     3 1
     3     1     4 1
     4     4     5 1
     5     4    13 1
     6     4    14 1
     7     5     6 1
     8     5    10 1
     9     5    15 1
    10     6     7 1
    11     6    16 1
    12     6    17 1
    13     7     8 1
    14     7     9 1
    15    10    11 1
    16    10    12 1
@<TRIPOS>SUBSTRUCTURE
     1 TRC         1 TEMP              0 ****  ****    0 ROOT
