@<TRIPOS>MOLECULE
TRD
   41    40     1     0     0
SMALL
bcc


@<TRIPOS>ATOM
      1 C1          0.0100   -0.0000   -0.0160 c3        1 TRD     -0.092100
      2 C2          1.5160   -0.0000    0.0130 c3        1 TRD     -0.080400
      3 C3          2.0450   -0.0000    1.4320 c3        1 TRD     -0.079400
      4 C4          3.5580   -0.0000    1.4560 c3        1 TRD     -0.079400
      5 C5          4.0860   -0.0000    2.8750 c3        1 TRD     -0.079400
      6 C6          5.5990   -0.0000    2.8990 c3        1 TRD     -0.079400
      7 C7          6.1260   -0.0000    4.3180 c3        1 TRD     -0.079400
      8 C8          7.6400   -0.0000    4.3420 c3        1 TRD     -0.079400
      9 C9          8.1670   -0.0000    5.7610 c3        1 TRD     -0.079400
     10 C10         9.6810   -0.0000    5.7850 c3        1 TRD     -0.079400
     11 C11        10.2080   -0.0000    7.2030 c3        1 TRD     -0.079400
     12 C12        11.7220   -0.0000    7.2290 c3        1 TRD     -0.080400
     13 C13        12.2510   -0.0000    8.6390 c3        1 TRD     -0.092100
     14 H11        -0.3950    0.9050    0.4990 hc        1 TRD      0.032700
     15 H12        -0.3950   -0.9050    0.4990 hc        1 TRD      0.032700
     16 H13        -0.3580    0.0000   -1.0700 hc        1 TRD      0.032700
     17 H21         1.9040   -0.9020   -0.5300 hc        1 TRD      0.038700
     18 H22         1.9040    0.9020   -0.5300 hc        1 TRD      0.038700
     19 H31         1.6600   -0.9020    1.9760 hc        1 TRD      0.039700
     20 H32         1.6600    0.9020    1.9760 hc        1 TRD      0.039700
     21 H41         3.9430    0.9030    0.9120 hc        1 TRD      0.039700
     22 H42         3.9430   -0.9030    0.9120 hc        1 TRD      0.039700
     23 H51         3.7010    0.9030    3.4190 hc        1 TRD      0.039700
     24 H52         3.7010   -0.9030    3.4190 hc        1 TRD      0.039700
     25 H61         5.9840   -0.9030    2.3550 hc        1 TRD      0.039700
     26 H62         5.9840    0.9030    2.3550 hc        1 TRD      0.039700
     27 H71         5.7420   -0.9030    4.8620 hc        1 TRD      0.039700
     28 H72         5.7420    0.9030    4.8620 hc        1 TRD      0.039700
     29 H81         8.0250    0.9030    3.7970 hc        1 TRD      0.039700
     30 H82         8.0250   -0.9030    3.7970 hc        1 TRD      0.039700
     31 H91         7.7820    0.9030    6.3050 hc        1 TRD      0.039700
     32 H92         7.7820   -0.9030    6.3050 hc        1 TRD      0.039700
     33 H101       10.0650   -0.9030    5.2400 hc        1 TRD      0.039700
     34 H102       10.0650    0.9030    5.2400 hc        1 TRD      0.039700
     35 H111        9.8230    0.9020    7.7480 hc        1 TRD      0.039700
     36 H112        9.8230   -0.9020    7.7480 hc        1 TRD      0.039700
     37 H121       12.1040    0.9020    6.6820 hc        1 TRD      0.038700
     38 H122       12.1040   -0.9020    6.6820 hc        1 TRD      0.038700
     39 H131       11.9010   -0.9050    9.1920 hc        1 TRD      0.032700
     40 H132       13.3680    0.0000    8.6350 hc        1 TRD      0.032700
     41 H133       11.9010    0.9050    9.1920 hc        1 TRD      0.032700
@<TRIPOS>BOND
     1    1    2 1   
     2    1   14 1   
     3    1   15 1   
     4    1   16 1   
     5    2    3 1   
     6    2   17 1   
     7    2   18 1   
     8    3    4 1   
     9    3   19 1   
    10    3   20 1   
    11    4    5 1   
    12    4   21 1   
    13    4   22 1   
    14    5    6 1   
    15    5   23 1   
    16    5   24 1   
    17    6    7 1   
    18    6   25 1   
    19    6   26 1   
    20    7    8 1   
    21    7   27 1   
    22    7   28 1   
    23    8    9 1   
    24    8   29 1   
    25    8   30 1   
    26    9   10 1   
    27    9   31 1   
    28    9   32 1   
    29   10   11 1   
    30   10   33 1   
    31   10   34 1   
    32   11   12 1   
    33   11   35 1   
    34   11   36 1   
    35   12   13 1   
    36   12   37 1   
    37   12   38 1   
    38   13   39 1   
    39   13   40 1   
    40   13   41 1   
@<TRIPOS>SUBSTRUCTURE
     1 TRD         1 TEMP              0 ****  ****    0 ROOT
