@<TRIPOS>MOLECULE
molecule
   41    40     1     0     0
SMALL
bcc


@<TRIPOS>ATOM
      1 C1           0.0000     0.0000     0.0000 c3         1 TRD      -0.092100
      2 C2           1.5300     0.0000     0.0000 c3         1 TRD      -0.084400
      3 C3           2.0400     0.0000     1.4420 c3         1 TRD      -0.081400
      4 C4           3.5700    -0.0000     1.4430 c3         1 TRD      -0.082400
      5 C5           4.0800    -0.0000     2.8850 c3         1 TRD      -0.081400
      6 C6           5.6100    -0.0000     2.8850 c3         1 TRD      -0.082400
      7 C7           6.1200    -0.0000     4.3270 c3         1 TRD      -0.081400
      8 C8           7.6500    -0.0000     4.3270 c3         1 TRD      -0.082400
      9 C9           8.1600    -0.0000     5.7690 c3         1 TRD      -0.081400
     10 C10          9.6890    -0.0000     5.7690 c3         1 TRD      -0.082400
     11 C11         10.2000    -0.0000     7.2110 c3         1 TRD      -0.081400
     12 C12         11.7300    -0.0000     7.2110 c3         1 TRD      -0.084400
     13 C13         12.2400    -0.0000     8.6530 c3         1 TRD      -0.092100
     14 H11         -0.3610    -0.8850     0.5110 hc         1 TRD       0.032367
     15 H12         -0.3610     0.0000    -1.0210 hc         1 TRD       0.032367
     16 H13         -0.3610     0.8850     0.5110 hc         1 TRD       0.032367
     17 H21          1.8910     0.8840    -0.5110 hc         1 TRD       0.039700
     18 H22          1.8910    -0.8840    -0.5110 hc         1 TRD       0.039700
     19 H31          1.6790     0.8840     1.9530 hc         1 TRD       0.040700
     20 H32          1.6790    -0.8840     1.9530 hc         1 TRD       0.040700
     21 H41          3.9310     0.8840     0.9320 hc         1 TRD       0.040700
     22 H42          3.9310    -0.8840     0.9320 hc         1 TRD       0.040700
     23 H51          3.7190     0.8840     3.3950 hc         1 TRD       0.040700
     24 H52          3.7190    -0.8840     3.3950 hc         1 TRD       0.040700
     25 H61          5.9710     0.8840     2.3740 hc         1 TRD       0.040700
     26 H62          5.9710    -0.8840     2.3740 hc         1 TRD       0.040700
     27 H71          5.7590    -0.8840     4.8370 hc         1 TRD       0.040700
     28 H72          5.7590     0.8840     4.8370 hc         1 TRD       0.040700
     29 H81          8.0110     0.8840     3.8160 hc         1 TRD       0.040700
     30 H82          8.0110    -0.8840     3.8160 hc         1 TRD       0.040700
     31 H91          7.7990     0.8840     6.2790 hc         1 TRD       0.040700
     32 H92          7.7990    -0.8840     6.2790 hc         1 TRD       0.040700
     33 H101        10.0500     0.8840     5.2580 hc         1 TRD       0.040700
     34 H102        10.0500    -0.8840     5.2580 hc         1 TRD       0.040700
     35 H111         9.8390     0.8840     7.7220 hc         1 TRD       0.040700
     36 H112         9.8390    -0.8840     7.7220 hc         1 TRD       0.040700
     37 H121        12.0910    -0.8840     6.7010 hc         1 TRD       0.039700
     38 H122        12.0910     0.8840     6.7010 hc         1 TRD       0.039700
     39 H131        11.8790     0.8850     9.1640 hc         1 TRD       0.032367
     40 H132        13.3230    -0.0000     8.6530 hc         1 TRD       0.032367
     41 H133        11.8790    -0.8850     9.1640 hc         1 TRD       0.032367
@<TRIPOS>BOND
     1     1     2 1
     2     1    14 1
     3     1    15 1
     4     1    16 1
     5     2     3 1
     6     2    17 1
     7     2    18 1
     8     3     4 1
     9     3    19 1
    10     3    20 1
    11     4     5 1
    12     4    21 1
    13     4    22 1
    14     5     6 1
    15     5    23 1
    16     5    24 1
    17     6     7 1
    18     6    25 1
    19     6    26 1
    20     7     8 1
    21     7    27 1
    22     7    28 1
    23     8     9 1
    24     8    29 1
    25     8    30 1
    26     9    10 1
    27     9    31 1
    28     9    32 1
    29    10    11 1
    30    10    33 1
    31    10    34 1
    32    11    12 1
    33    11    35 1
    34    11    36 1
    35    12    13 1
    36    12    37 1
    37    12    38 1
    38    13    39 1
    39    13    40 1
    40    13    41 1
@<TRIPOS>SUBSTRUCTURE
     1 TRD         1 TEMP              0 ****  ****    0 ROOT
