@<TRIPOS>MOLECULE
TRI
    8     8     1     0     0
SMALL
bcc


@<TRIPOS>ATOM
      1 N1         -0.0180   -0.0010   -0.0590 nc        1 TRI     -0.348000
      2 N2          1.3030    0.0010   -0.0590 nc        1 TRI     -0.348000
      3 C3          1.7500    0.0010    1.2280 cd        1 TRI      0.347400
      4 N4          0.6420   -0.0020    2.0830 na        1 TRI     -0.453700
      5 C5         -0.4670   -0.0030    1.2270 cd        1 TRI      0.347400
      6 H3          2.7890    0.0020    1.5670 h5        1 TRI      0.072100
      7 HN4         0.6410   -0.0020    3.0670 hn        1 TRI      0.309700
      8 H5         -1.5050   -0.0040    1.5660 h5        1 TRI      0.072100
@<TRIPOS>BOND
     1    1    2 1   
     2    1    5 2   
     3    2    3 2   
     4    3    4 1   
     5    3    6 1   
     6    4    5 1   
     7    4    7 1   
     8    5    8 1   
@<TRIPOS>SUBSTRUCTURE
     1 TRI         1 TEMP              0 ****  ****    0 ROOT
