@<TRIPOS>MOLECULE
molecule
    8     8     1     0     0
SMALL
bcc


@<TRIPOS>ATOM
      1 N1           0.0000     0.0000     0.0000 nc         1 TRI      -0.353000
      2 N2           1.2850     0.0000     0.0000 nc         1 TRI      -0.353000
      3 C3           1.7240     0.0000     1.2280 cd         1 TRI       0.347400
      4 N4           0.6410    -0.0000     2.0430 na         1 TRI      -0.440700
      5 C5          -0.4400    -0.0040     1.2280 cd         1 TRI       0.347400
      6 H3           2.7620     0.0010     1.5390 h5         1 TRI       0.073100
      7 HN4          0.6410    -0.0010     3.0440 hn         1 TRI       0.306700
      8 H5          -1.4780    -0.0050     1.5380 h5         1 TRI       0.073100
@<TRIPOS>BOND
     1     1     2 1
     2     1     5 2
     3     2     3 2
     4     3     4 1
     5     3     6 1
     6     4     5 1
     7     4     7 1
     8     5     8 1
@<TRIPOS>SUBSTRUCTURE
     1 TRI         1 TEMP              0 ****  ****    0 ROOT
