@<TRIPOS>MOLECULE
molecule
   24    24     1     0     0
SMALL
bcc


@<TRIPOS>ATOM
      1 N            0.0000     0.0000     0.0000 nz         1 TRJ      -0.809600
      2 CA           1.4690     0.0000     0.0000 c3         1 TRJ       0.158600
      3 CG           1.9720     0.0000     1.4200 ca         1 TRJ      -0.178300
      4 CD1          2.2080     1.1960     2.0690 ca         1 TRJ      -0.083000
      5 CD2          2.2020    -1.1970     2.0710 ca         1 TRJ      -0.056000
      6 CE1          2.6660     1.1950     3.3740 ca         1 TRJ      -0.178300
      7 CE2          2.6630    -1.1970     3.3740 ca         1 TRJ      -0.089000
      8 CZ           2.8950    -0.0010     4.0250 ca         1 TRJ      -0.056000
      9 CB           2.9180     2.5010     4.0840 c3         1 TRJ       0.158600
     10 N2           4.3050     2.9230     3.8540 nz         1 TRJ      -0.809600
     11 HN1         -0.3340     0.7970     0.5050 hn         1 TRJ       0.463967
     12 HN2         -0.3340    -0.8360     0.4380 hn         1 TRJ       0.463967
     13 HA1          1.8300     0.8840    -0.5110 hx         1 TRJ       0.123450
     14 HA2          1.8300    -0.8840    -0.5110 hx         1 TRJ       0.123450
     15 HD11         2.0710     2.1340     1.5440 ha         1 TRJ       0.141000
     16 HD21         2.0540    -2.1350     1.5490 ha         1 TRJ       0.167500
     17 HE21         2.8350    -2.1360     3.8870 ha         1 TRJ       0.190000
     18 HZ1          3.2270    -0.0010     5.0560 ha         1 TRJ       0.167500
     19 HB1          2.7510     2.3720     5.1460 hx         1 TRJ       0.123450
     20 HB2          2.2420     3.2560     3.7010 hx         1 TRJ       0.123450
     21 HN21         4.4580     3.0480     2.8720 hn         1 TRJ       0.463967
     22 HN22         4.9290     2.2230     4.2020 hn         1 TRJ       0.463967
     23 HN3         -0.3340     0.0550    -0.9420 hn         1 TRJ       0.463967
     24 H23          4.4760     3.7830     4.3370 hn         1 TRJ       0.463967
@<TRIPOS>BOND
     1     1     2 1
     2     1    11 1
     3     1    12 1
     4     2     3 1
     5     2    13 1
     6     2    14 1
     7     3     4 ar
     8     3     5 ar
     9     4     6 ar
    10     4    15 1
    11     5     7 ar
    12     5    16 1
    13     6     8 ar
    14     6     9 1
    15     7     8 ar
    16     7    17 1
    17     8    18 1
    18     9    10 1
    19     9    19 1
    20     9    20 1
    21    10    21 1
    22    10    22 1
    23    23     1 1
    24    24    10 1
@<TRIPOS>SUBSTRUCTURE
     1 TRJ         1 TEMP              0 ****  ****    0 ROOT
