@<TRIPOS>MOLECULE
TRK
   56    61     1     0     0
SMALL
bcc


@<TRIPOS>ATOM
      1 N            0.0000     0.0000     0.0000 ns         1 TRK      -0.007000
      2 C1           7.9060     1.2830     6.7960 c3         1 TRK       0.094000
      3 O1           9.0270     1.0810     5.9270 os         1 TRK      -0.229000
      4 C2           6.9170     0.1270     6.6300 DU         1 TRK      -0.071000
      5 O2           2.0360     0.0010    -1.0010 o          1 TRK      -0.408000
      6 C3           7.5690    -1.1740     7.1010 c3         1 TRK      -0.148000
      7 O3           0.7980    -0.0010     3.4720 o          1 TRK      -0.346000
      8 C4           6.5310    -0.0010     5.1800 c2         1 TRK      -0.550000
      9 O4           4.1690     0.0010     0.7880 oh         1 TRK      -0.215000
     10 C5           5.2410    -0.0010     4.8280 c3         1 TRK       0.157000
     11 O5           9.3640     3.3560     5.5940 os         1 TRK      -0.250000
     12 C6           4.8800    -0.0010     3.4570 c2         1 TRK       0.073000
     13 C7           3.5690    -0.0000     3.1000 c2         1 TRK      -0.015000
     14 C8           3.2100     0.0010     1.7380 c3         1 TRK       0.318000
     15 C9           1.8570     0.0000     1.3700 c2         1 TRK      -0.484000
     16 C10          1.3430     0.0000     0.0000 c2         1 TRK       0.306000
     17 C11         -0.4780    -0.0000     1.3870 c3         1 TRK      -0.125000
     18 C12          0.7580    -0.0000     2.2580 c2         1 TRK       0.349000
     19 C13          4.1720    -0.0010     5.8900 c3         1 TRK      -0.129000
     20 C14          7.2200     2.6010     6.4260 c3         1 TRK      -0.157000
     21 C15          6.1320     2.9140     7.4560 c3         1 TRK      -0.132000
     22 C16          8.2480     3.7320     6.4130 c3         1 TRK       0.045000
     23 C17          9.9910     2.1420     6.0180 c3         1 TRK       0.256000
     24 C18         11.1850     1.8340     5.1110 c3         1 TRK      -0.106000
     25 C19         10.4340     2.2550     7.4520 c2         1 TRK      -0.119000
     26 C20         11.5590     1.3820     7.9460 c3         1 TRK      -0.073000
     27 C21          9.8540     3.1080     8.2950 c2         1 TRK      -0.202000
     28 C22          8.7700     3.9740     7.8110 c2         1 TRK       0.275000
     29 H           -0.5810     0.0020    -0.8150 hn         1 TRK       0.114000
     30 H111        -1.0660    -0.8900     1.5760 h1         1 TRK       0.074500
     31 H112        -1.0660     0.8890     1.5770 h1         1 TRK       0.074500
     32 H2           6.0320     0.3220     7.2230 ha         1 TRK       0.063000
     33 H14          6.7760     2.5100     5.4420 hc         1 TRK       0.120000
     34 H31C         8.0660    -1.0070     8.0490 hc         1 TRK       0.058000
     35 H32C         8.2950    -1.5010     6.3660 hc         1 TRK       0.058000
     36 H33C         6.8090    -1.9360     7.2210 hc         1 TRK       0.058000
     37 H4           6.5410    -0.8550     5.8460 DU         1 TRK       0.251000
     38 H6           4.8580    -0.8760     4.0950 DU         1 TRK       0.038000
     39 H131         4.0890     0.9900     6.3190 hc         1 TRK       0.078000
     40 H132         4.4330    -0.7100     6.6660 hc         1 TRK       0.078000
     41 H133         3.2240    -0.2840     5.4480 hc         1 TRK       0.078000
     42 H16          7.7960     4.6370     6.0260 h1         1 TRK       0.105000
     43 H7           3.5910    -0.8750     2.4610 DU         1 TRK       0.037000
     44 H151         5.1620     2.6640     7.0440 hc         1 TRK       0.052333
     45 H152         6.3060     2.3320     8.3530 hc         1 TRK       0.052333
     46 H153         6.1590     3.9690     7.7000 hc         1 TRK       0.052333
     47 H181        10.8900     1.9460     4.0750 hc         1 TRK       0.061333
     48 H182        11.9940     2.5190     5.3330 hc         1 TRK       0.061333
     49 H183        11.5160     0.8170     5.2840 hc         1 TRK       0.061333
     50 H201        11.4430     1.2100     9.0090 hc         1 TRK       0.056000
     51 H202        11.5370     0.4340     7.4230 hc         1 TRK       0.056000
     52 H203        12.5060     1.8750     7.7610 hc         1 TRK       0.056000
     53 H21         10.0770     3.0590     9.3540 ha         1 TRK       0.128000
     54 HO4          4.4190    -0.8870     0.5930 ho         1 TRK       0.221000
     55 H1           8.2490     1.3300     7.8220 h1         1 TRK       0.057000
     56 O6           8.3110     4.8540     8.5090 o          1 TRK      -0.303000
@<TRIPOS>BOND
     1     1    16 1   
     2     1    17 1   
     3     1    29 1   
     4     2     3 1   
     5     2     4 1   
     6     2    20 1   
     7     2    55 1   
     8     3    23 1   
     9     4     6 1   
    10     4     8 1   
    11     4    32 1   
    12     4    37 1   
    13     5    16 1   
    14     6    34 1   
    15     6    35 1   
    16     6    36 1   
    17     7    18 1   
    18     8    10 1   
    19     8    37 1   
    20     9    14 1   
    21     9    54 1   
    22    10    12 1   
    23    10    19 1   
    24    10    38 1   
    25    11    22 1   
    26    11    23 1   
    27    12    13 1   
    28    12    38 1   
    29    13    14 1   
    30    13    43 1   
    31    14    15 1   
    32    14    43 1   
    33    15    16 1   
    34    15    18 1   
    35    17    18 1   
    36    17    30 1   
    37    17    31 1   
    38    19    39 1   
    39    19    40 1   
    40    19    41 1   
    41    20    21 1   
    42    20    22 1   
    43    20    33 1   
    44    21    44 1   
    45    21    45 1   
    46    21    46 1   
    47    22    28 1   
    48    22    42 1   
    49    23    24 1   
    50    23    25 1   
    51    24    47 1   
    52    24    48 1   
    53    24    49 1   
    54    25    26 1   
    55    25    27 1   
    56    26    50 1   
    57    26    51 1   
    58    26    52 1   
    59    27    28 1   
    60    27    53 1   
    61    28    56 1   
@<TRIPOS>SUBSTRUCTURE
     1 TRK         1 TEMP              0 ****  ****    0 ROOT
