@<TRIPOS>MOLECULE
molecule
   56    58     1     0     0
SMALL
bcc


@<TRIPOS>ATOM
      1 N            0.0000     0.0000     0.0000 ns         1 TRK      -0.588900
      2 C1           7.9060     1.2830     6.7960 c3         1 TRK       0.144100
      3 O1           9.0270     1.0810     5.9270 os         1 TRK      -0.420600
      4 C2           6.9170     0.1270     6.6300 c3         1 TRK      -0.044500
      5 O2           2.0360     0.0010    -1.0010 o          1 TRK      -0.631500
      6 C3           7.5690    -1.1740     7.1010 c3         1 TRK      -0.081100
      7 O3           0.7980    -0.0010     3.4720 o          1 TRK      -0.537100
      8 C4           6.5310    -0.0010     5.1800 c2         1 TRK      -0.103200
      9 O4           4.1690     0.0010     0.7880 oh         1 TRK      -0.511100
     10 C5           5.2410    -0.0010     4.8280 ce         1 TRK      -0.136200
     11 O5           9.3640     3.3560     5.5940 os         1 TRK      -0.407600
     12 C6           4.8800    -0.0010     3.4570 ce         1 TRK      -0.030000
     13 C7           3.5690    -0.0000     3.1000 cf         1 TRK      -0.232000
     14 C8           3.2100     0.0010     1.7380 cf         1 TRK       0.309100
     15 C9           1.8570     0.0000     1.3700 ce         1 TRK      -0.390400
     16 C10          1.3430     0.0000     0.0000 c          1 TRK       0.719700
     17 C11         -0.4780    -0.0000     1.3870 c3         1 TRK      -0.007000
     18 C12          0.7580    -0.0000     2.2580 c          1 TRK       0.592300
     19 C13          4.1720    -0.0010     5.8900 c3         1 TRK      -0.061900
     20 C14          7.2200     2.6010     6.4260 c3         1 TRK      -0.126700
     21 C15          6.1320     2.9140     7.4560 c3         1 TRK      -0.097100
     22 C16          8.2480     3.7320     6.4130 c3         1 TRK       0.056100
     23 C17          9.9910     2.1420     6.0180 c3         1 TRK       0.374800
     24 C18         11.1850     1.8340     5.1110 c3         1 TRK      -0.063100
     25 C19         10.4340     2.2550     7.4520 c2         1 TRK      -0.110400
     26 C20         11.5590     1.3820     7.9460 c3         1 TRK      -0.060900
     27 C21          9.8540     3.1080     8.2950 ce         1 TRK      -0.241200
     28 C22          8.7700     3.9740     7.8110 c          1 TRK       0.540300
     29 H           -0.5810    -0.0000    -0.8150 hn         1 TRK       0.348500
     30 H111        -1.0650     0.8890     1.5770 h1         1 TRK       0.069700
     31 H112        -1.0660    -0.8900     1.5760 h1         1 TRK       0.069700
     32 H2           6.0320     0.3220     7.2230 hc         1 TRK       0.078700
     33 H14          6.7760     2.5100     5.4420 hc         1 TRK       0.083700
     34 H31C         8.3270    -0.9510     7.8420 hc         1 TRK       0.041700
     35 H32C         6.8160    -1.8180     7.5380 hc         1 TRK       0.041700
     36 H33C         8.0270    -1.6750     6.2560 hc         1 TRK       0.041700
     37 H4           7.2990     0.0000     4.4150 ha         1 TRK       0.147000
     38 H6           5.6490     0.0000     2.6940 ha         1 TRK       0.140000
     39 H131         3.4880    -0.8230     5.7140 hc         1 TRK       0.050367
     40 H132         3.6270     0.9350     5.8550 hc         1 TRK       0.050367
     41 H133         4.6300    -0.1160     6.8650 hc         1 TRK       0.050367
     42 H16          7.7960     4.6370     6.0260 h1         1 TRK       0.111700
     43 H7           2.8000    -0.0010     3.8630 ha         1 TRK       0.188000
     44 H151         6.0450     3.9880     7.5730 hc         1 TRK       0.047367
     45 H152         6.3960     2.4670     8.4070 hc         1 TRK       0.047367
     46 H153         5.1870     2.5100     7.1160 hc         1 TRK       0.047367
     47 H181        11.9980     2.5110     5.3410 hc         1 TRK       0.059367
     48 H182        10.8930     1.9580     4.0750 hc         1 TRK       0.059367
     49 H183        11.5080     0.8130     5.2750 hc         1 TRK       0.059367
     50 H201        11.4340     1.1970     9.0060 hc         1 TRK       0.054033
     51 H202        12.5050     1.8820     7.7760 hc         1 TRK       0.054033
     52 H203        11.5470     0.4400     7.4110 hc         1 TRK       0.054033
     53 H21         10.2730     3.2650     9.2820 ha         1 TRK       0.158000
     54 HO4          4.3990     0.8900     0.5730 ho         1 TRK       0.448000
     55 H1           8.2490     1.3300     7.8220 h1         1 TRK       0.055700
     56 O6           8.3110     4.8540     8.5090 o          1 TRK      -0.508100
@<TRIPOS>BOND
     1     1    16 1
     2     1    17 1
     3     2     3 1
     4     2     4 1
     5     2    20 1
     6     3    23 1
     7     4     6 1
     8     4     8 1
     9     5    16 2
    10     7    18 2
    11     8    10 2
    12     9    14 1
    13    10    12 1
    14    10    19 1
    15    11    22 1
    16    11    23 1
    17    12    13 2
    18    56    28 2
    19    13    14 1
    20    14    15 2
    21    15    16 1
    22    15    18 1
    23    17    18 1
    24    20    21 1
    25    20    22 1
    26    22    28 1
    27    23    24 1
    28    23    25 1
    29    25    26 1
    30    25    27 2
    31    27    28 1
    32     1    29 1
    33    17    30 1
    34    17    31 1
    35     2    55 1
    36     4    32 1
    37    20    33 1
    38     6    34 1
    39     6    35 1
    40     6    36 1
    41     8    37 1
    42    12    38 1
    43    19    39 1
    44    19    40 1
    45    19    41 1
    46    22    42 1
    47    13    43 1
    48    21    44 1
    49    21    45 1
    50    21    46 1
    51    24    47 1
    52    24    48 1
    53    24    49 1
    54    26    50 1
    55    26    51 1
    56    26    52 1
    57    27    53 1
    58     9    54 1
@<TRIPOS>SUBSTRUCTURE
     1 TRK         1 TEMP              0 ****  ****    0 ROOT
