@<TRIPOS>MOLECULE
molecule
   64    64     1     0     0
SMALL
bcc


@<TRIPOS>ATOM
      1 O1           0.0000     0.0000     0.0000 o          1 TRL      -0.525100
      2 C28          1.2080     0.0000     0.0000 c          1 TRL       0.573900
      3 C27          1.9610     0.0000     1.3050 c3         1 TRL      -0.210700
      4 C3           2.8410    -1.2500     1.3860 c3         1 TRL      -0.088400
      5 C4           3.6060    -1.2500     2.7100 c3         1 TRL      -0.083100
      6 C8           2.8400     1.2480     1.3850 c3         1 TRL       0.099700
      7 N10          3.6650     1.3590     0.1730 n          1 TRL      -0.504800
      8 C9           3.3120     2.6130    -0.5220 c3         1 TRL       0.085000
      9 C12          2.7320     3.5290     0.5840 c3         1 TRL      -0.102400
     10 C14          1.9550     2.5090     1.4580 c3         1 TRL       0.230500
     11 N3           1.8430     2.9860     2.8390 n7         1 TRL      -0.904100
     12 S1           0.3580     3.0800     3.5640 s6         1 TRL       1.320900
     13 O4          -0.3740     3.9140     2.6760 o          1 TRL      -0.623800
     14 O5           0.6780     3.4840     4.8880 o          1 TRL      -0.623800
     15 C1          -0.2360     1.3670     3.5140 c3         1 TRL      -0.251300
     16 C2           4.5860     0.4650    -0.2370 c          1 TRL       0.667100
     17 O2           5.0660    -0.3180     0.5540 o          1 TRL      -0.579100
     18 C5           5.0210     0.4410    -1.6800 c3         1 TRL       0.068700
     19 C6           6.2170    -0.5000    -1.8360 c3         1 TRL      -0.079700
     20 C13          7.3440    -0.0500    -0.9050 c3         1 TRL      -0.085100
     21 C7           5.7960    -1.9250    -1.4740 c3         1 TRL      -0.085100
     22 N1           5.4040     1.7920    -2.0980 ns         1 TRL      -0.578900
     23 C11          5.2460     2.1690    -3.3820 c          1 TRL       0.758100
     24 O3           4.7870     1.3900    -4.1920 o          1 TRL      -0.611000
     25 O6           5.5990     3.4100    -3.7660 os         1 TRL      -0.449900
     26 C15          5.4290     3.8190    -5.1490 c3         1 TRL       0.185800
     27 C21          5.9020     5.2630    -5.3170 c3         1 TRL      -0.107433
     28 C26          6.2540     2.9030    -6.0550 c3         1 TRL      -0.107433
     29 C25          3.9520     3.7170    -5.5320 c3         1 TRL      -0.107433
     30 H28          1.7490    -0.0580    -0.9370 h4         1 TRL       0.003200
     31 H27          1.2570     0.0000     2.1290 hc         1 TRL       0.078700
     32 HC31         3.5450    -1.2500     0.5630 hc         1 TRL       0.059700
     33 HC32         2.2180    -2.1340     1.3290 hc         1 TRL       0.059700
     34 HC41         4.3770    -0.4900     2.6810 hc         1 TRL       0.038033
     35 HC42         4.0600    -2.2210     2.8640 hc         1 TRL       0.038033
     36 HC43         2.9210    -1.0380     3.5230 hc         1 TRL       0.038033
     37 HC8          3.4790     1.1990     2.2590 h1         1 TRL       0.084700
     38 HC91         4.1960     3.0630    -0.9570 h1         1 TRL       0.058700
     39 HC92         2.5640     2.4230    -1.2830 h1         1 TRL       0.058700
     40 H121         3.5260     3.9980     1.1520 hc         1 TRL       0.070700
     41 H122         2.0600     4.2660     0.1610 hc         1 TRL       0.070700
     42 H14          0.9780     2.3130     1.0340 h1         1 TRL       0.085700
     43 HN3          2.6580     3.3000     3.3280 hn         1 TRL       0.459800
     44 HC11         0.5630     0.6990     3.8130 h1         1 TRL       0.104033
     45 HC12        -0.5520     1.1240     2.5070 h1         1 TRL       0.104033
     46 HC13        -1.0730     1.2550     4.1920 h1         1 TRL       0.104033
     47 HC5          4.2030     0.0910    -2.2970 h1         1 TRL       0.102700
     48 HC6          6.5640    -0.4760    -2.8620 hc         1 TRL       0.070700
     49 H131         7.0640     0.8780    -0.4210 hc         1 TRL       0.039700
     50 H132         8.2490     0.1020    -1.4800 hc         1 TRL       0.039700
     51 H133         7.5180    -0.8110    -0.1530 hc         1 TRL       0.039700
     52 HC71         4.7480    -2.0640    -1.7130 hc         1 TRL       0.039700
     53 HC72         5.9490    -2.0890    -0.4150 hc         1 TRL       0.039700
     54 HC73         6.3920    -2.6320    -2.0390 hc         1 TRL       0.039700
     55 HN1          5.8370     2.4140    -1.4440 hn         1 TRL       0.329500
     56 H211         6.9450     5.3370    -5.0340 hc         1 TRL       0.051033
     57 H212         5.7860     5.5630    -6.3520 hc         1 TRL       0.051033
     58 H213         5.3090     5.9130    -4.6840 hc         1 TRL       0.051033
     59 H261         7.1990     2.6750    -5.5750 hc         1 TRL       0.051033
     60 H262         6.4400     3.4010    -6.9990 hc         1 TRL       0.051033
     61 H263         5.7090     1.9840    -6.2330 hc         1 TRL       0.051033
     62 H251         3.7710     4.2960    -6.4300 hc         1 TRL       0.051033
     63 H252         3.6960     2.6800    -5.7130 hc         1 TRL       0.051033
     64 H253         3.3420     4.1040    -4.7250 hc         1 TRL       0.051033
@<TRIPOS>BOND
     1     1     2 2
     2     2     3 1
     3     2    30 1
     4     3     4 1
     5     3     6 1
     6     3    31 1
     7     4     5 1
     8     4    32 1
     9     4    33 1
    10     5    34 1
    11     5    35 1
    12     5    36 1
    13     6     7 1
    14     6    10 1
    15     6    37 1
    16     7     8 1
    17     7    16 1
    18     8     9 1
    19     8    38 1
    20     8    39 1
    21     9    10 1
    22     9    40 1
    23     9    41 1
    24    10    11 1
    25    10    42 1
    26    11    12 1
    27    11    43 1
    28    12    13 2
    29    12    14 2
    30    12    15 1
    31    15    44 1
    32    15    45 1
    33    15    46 1
    34    16    17 2
    35    16    18 1
    36    18    19 1
    37    18    22 1
    38    18    47 1
    39    19    20 1
    40    19    21 1
    41    19    48 1
    42    20    49 1
    43    20    50 1
    44    20    51 1
    45    21    52 1
    46    21    53 1
    47    21    54 1
    48    22    23 1
    49    22    55 1
    50    23    24 2
    51    23    25 1
    52    25    26 1
    53    26    27 1
    54    26    28 1
    55    26    29 1
    56    27    56 1
    57    27    57 1
    58    27    58 1
    59    28    59 1
    60    28    60 1
    61    28    61 1
    62    29    62 1
    63    29    63 1
    64    29    64 1
@<TRIPOS>SUBSTRUCTURE
     1 TRL         1 TEMP              0 ****  ****    0 ROOT
