@<TRIPOS>MOLECULE
molecule
   17    18     1     0     0
SMALL
bcc


@<TRIPOS>ATOM
      1 NG           0.0000     0.0000     0.0000 nc         1 TRM      -0.594100
      2 CD1          1.3080     0.0000     0.0000 cd         1 TRM       0.428800
      3 NE1          1.7700     0.0000     1.2900 na         1 TRM      -0.253300
      4 CE2          0.6690    -0.0030     2.1130 ca         1 TRM      -0.125200
      5 CZ2          0.4940    -0.0050     3.4910 ca         1 TRM      -0.127000
      6 CH2         -0.7800    -0.0080     4.0180 ca         1 TRM      -0.151000
      7 CZ3         -1.8880    -0.0100     3.1820 ca         1 TRM      -0.166000
      8 CE3         -1.7390    -0.0090     1.8260 ca         1 TRM      -0.082000
      9 CD2         -0.4550    -0.0050     1.2640 ca         1 TRM       0.096400
     10 C            2.1590     0.0030    -1.2100 c          1 TRM       0.821300
     11 O            3.3680     0.0060    -1.1000 o          1 TRM      -0.805300
     12 OXT          1.5930     0.0020    -2.4310 o          1 TRM      -0.805300
     13 HE11         2.7280    -0.0000     1.5790 hn         1 TRM       0.306700
     14 HZ21         1.3540    -0.0030     4.1490 ha         1 TRM       0.109000
     15 HH21        -0.9170    -0.0080     5.0920 ha         1 TRM       0.109000
     16 HZ31        -2.8820    -0.0130     3.6120 ha         1 TRM       0.109000
     17 HE31        -2.6120    -0.0110     1.1840 ha         1 TRM       0.129000
@<TRIPOS>BOND
     1     1     2 2
     2     1     9 1
     3     2     3 1
     4     2    10 1
     5     3     4 1
     6     3    13 1
     7     4     5 ar
     8     4     9 ar
     9     5     6 ar
    10     5    14 1
    11     6     7 ar
    12     6    15 1
    13     7     8 ar
    14     7    16 1
    15     8     9 ar
    16     8    17 1
    17    10    11 1
    18    10    12 1
@<TRIPOS>SUBSTRUCTURE
     1 TRM         1 TEMP              0 ****  ****    0 ROOT
