@<TRIPOS>MOLECULE
TRM
   17    18     1     0     0
SMALL
bcc


@<TRIPOS>ATOM
      1 NG         -0.1170   -0.0890   -0.0990 nc        1 TRM     -0.590100
      2 CD1         1.2300   -0.0100   -0.0760 cd        1 TRM      0.393800
      3 NE1         1.7370    0.0890    1.2440 na        1 TRM     -0.275300
      4 CE2         0.6510    0.0460    2.1110 ca        1 TRM     -0.090200
      5 CZ2         0.5280    0.0970    3.5010 ca        1 TRM     -0.144000
      6 CH2        -0.7530    0.0440    4.0380 ca        1 TRM     -0.146000
      7 CZ3        -1.8890   -0.0540    3.2220 ca        1 TRM     -0.175000
      8 CE3        -1.7940   -0.1040    1.8370 ca        1 TRM     -0.090000
      9 CD2        -0.5260   -0.0570    1.2480 ca        1 TRM      0.072400
     10 C           2.2310   -0.0180   -1.2620 c         1 TRM      0.858300
     11 O           3.4290   -0.2550   -0.9490 o         1 TRM     -0.792800
     12 OXT         1.7860    0.2200   -2.4050 o         1 TRM     -0.792800
     13 HE11        2.6960    0.0720    1.4690 hn        1 TRM      0.312700
     14 HZ21        1.4110    0.1750    4.1470 ha        1 TRM      0.117000
     15 HH21       -0.8800    0.0800    5.1300 ha        1 TRM      0.106000
     16 HZ31       -2.8810   -0.0910    3.6950 ha        1 TRM      0.107000
     17 HE31       -2.6920   -0.1790    1.2090 ha        1 TRM      0.130000
@<TRIPOS>BOND
     1    1    2 2   
     2    1    9 1   
     3    2    3 1   
     4    2   10 1   
     5    3    4 1   
     6    3   13 1   
     7    4    5 ar  
     8    4    9 ar  
     9    5    6 ar  
    10    5   14 1   
    11    6    7 ar  
    12    6   15 1   
    13    7    8 ar  
    14    7   16 1   
    15    8    9 ar  
    16    8   17 1   
    17   10   11 1   
    18   10   12 1   
@<TRIPOS>SUBSTRUCTURE
     1 TRM         1 TEMP              0 ****  ****    0 ROOT
