@<TRIPOS>MOLECULE
TRM
   17    18     1     0     0
SMALL
bcc


@<TRIPOS>ATOM
      1 NG         -0.1160   -0.0490   -0.1010 nc        1 TRM     -0.590100
      2 CD1         1.2310    0.0010   -0.0750 cd        1 TRM      0.393800
      3 NE1         1.7390    0.0650    1.2470 na        1 TRM     -0.275300
      4 CE2         0.6510    0.0290    2.1120 ca        1 TRM     -0.090200
      5 CZ2         0.5270    0.0560    3.5030 ca        1 TRM     -0.144000
      6 CH2        -0.7540    0.0210    4.0380 ca        1 TRM     -0.146000
      7 CZ3        -1.8920   -0.0370    3.2190 ca        1 TRM     -0.175000
      8 CE3        -1.7960   -0.0640    1.8330 ca        1 TRM     -0.090000
      9 CD2        -0.5260   -0.0330    1.2470 ca        1 TRM      0.072400
     10 C           2.2340   -0.0070   -1.2600 c         1 TRM      0.858300
     11 O           3.4240   -0.2870   -0.9520 o         1 TRM     -0.792800
     12 OXT         1.7980    0.2730   -2.3970 o         1 TRM     -0.792800
     13 HE11        2.6970    0.0200    1.4730 hn        1 TRM      0.312700
     14 HZ21        1.4110    0.1030    4.1510 ha        1 TRM      0.117000
     15 HH21       -0.8820    0.0390    5.1300 ha        1 TRM      0.106000
     16 HZ31       -2.8850   -0.0620    3.6900 ha        1 TRM      0.107000
     17 HE31       -2.6940   -0.1070    1.2030 ha        1 TRM      0.130000
@<TRIPOS>BOND
     1    1    2 2   
     2    1    9 1   
     3    2    3 1   
     4    2   10 1   
     5    3    4 1   
     6    3   13 1   
     7    4    5 ar  
     8    4    9 ar  
     9    5    6 ar  
    10    5   14 1   
    11    6    7 ar  
    12    6   15 1   
    13    7    8 ar  
    14    7   16 1   
    15    8    9 ar  
    16    8   17 1   
    17   10   11 1   
    18   10   12 1   
@<TRIPOS>SUBSTRUCTURE
     1 TRM         1 TEMP              0 ****  ****    0 ROOT
