@<TRIPOS>MOLECULE
molecule
   40    41     1     0     0
SMALL
bcc


@<TRIPOS>ATOM
      1 N1           0.0000     0.0000     0.0000 na         1 TRR      -0.273900
      2 C2           1.3250     0.0000     0.0000 ca         1 TRR       0.727000
      3 N2           2.0000    -0.0020    -1.2080 nv         1 TRR      -0.619900
      4 N3           2.0190     0.0000     1.1270 nb         1 TRR      -0.752000
      5 C4           1.4000     0.0050     2.3040 ca         1 TRR       0.788200
      6 N4           2.1290     0.0060     3.4820 nv         1 TRR      -0.930500
      7 C5           0.0050     0.0000     2.3350 ca         1 TRR      -0.263600
      8 C6          -0.6810     0.0010     1.1360 ca         1 TRR       0.014700
      9 C7          -0.7370     0.0030     3.6470 c3         1 TRR       0.023200
     10 C11         -0.8760     1.4180     4.1440 ca         1 TRR      -0.052300
     11 C12         -1.9780     2.1700     3.7840 ca         1 TRR      -0.249000
     12 C13         -2.1090     3.4730     4.2400 ca         1 TRR       0.147100
     13 C14         -1.1270     4.0250     5.0540 ca         1 TRR       0.060100
     14 C15         -0.0240     3.2630     5.4190 ca         1 TRR       0.147100
     15 C16          0.1000     1.9610     4.9580 ca         1 TRR      -0.249000
     16 O13         -3.1940     4.2130     3.8850 os         1 TRR      -0.260400
     17 O14         -1.2510     5.3040     5.5030 os         1 TRR      -0.286900
     18 O15          0.9380     3.7960     6.2200 os         1 TRR      -0.260400
     19 C17         -4.0050     3.3820     3.0510 c3         1 TRR       0.102700
     20 C18         -0.6140     6.1440     4.5380 c3         1 TRR       0.114700
     21 C19          1.9290     2.7850     6.4050 c3         1 TRR       0.102700
     22 H1          -0.4930     0.0010    -0.8710 hn         1 TRR       0.335700
     23 H21          2.1360    -0.8610    -1.7030 hn         1 TRR       0.327200
     24 H22          2.4090     0.8440    -1.5530 hn         1 TRR       0.327200
     25 H41          1.6880    -0.2560     4.3410 hn         1 TRR       0.475300
     26 H42          3.1130     0.1850     3.4600 hn         1 TRR       0.475300
     27 H6          -1.7650    -0.0010     1.1240 h4         1 TRR       0.206000
     28 H71         -1.7210    -0.4280     3.5050 hc         1 TRR       0.074200
     29 H72         -0.1880    -0.5840     4.3740 hc         1 TRR       0.074200
     30 H12         -2.7430     1.7390     3.1490 ha         1 TRR       0.136500
     31 H16          0.9600     1.3660     5.2420 ha         1 TRR       0.136500
     32 H171        -4.8850     3.9320     2.7420 h1         1 TRR       0.045867
     33 H172        -3.4380     3.0850     2.1770 h1         1 TRR       0.045867
     34 H173        -4.3050     2.5000     3.6040 h1         1 TRR       0.045867
     35 H181        -0.3220     5.5510     3.6800 h1         1 TRR       0.041367
     36 H182         0.2650     6.5980     4.9790 h1         1 TRR       0.041367
     37 H183        -1.3020     6.9190     4.2230 h1         1 TRR       0.041367
     38 H191         1.4780     1.9180     6.8720 h1         1 TRR       0.045867
     39 H192         2.3420     2.5030     5.4440 h1         1 TRR       0.045867
     40 H193         2.7200     3.1660     7.0410 h1         1 TRR       0.045867
@<TRIPOS>BOND
     1     1     2 1
     2     1     8 2
     3     1    22 1
     4     2     3 1
     5     2     4 ar
     6     3    23 1
     7     3    24 1
     8     4     5 ar
     9     5     6 1
    10     5     7 ar
    11     6    25 1
    12     6    26 1
    13     7     8 ar
    14     7     9 1
    15     8    27 1
    16     9    10 1
    17     9    28 1
    18     9    29 1
    19    10    11 ar
    20    10    15 ar
    21    11    12 ar
    22    11    30 1
    23    12    13 ar
    24    12    16 1
    25    13    14 ar
    26    13    17 1
    27    14    15 ar
    28    14    18 1
    29    15    31 1
    30    16    19 1
    31    17    20 1
    32    18    21 1
    33    19    32 1
    34    19    33 1
    35    19    34 1
    36    20    35 1
    37    20    36 1
    38    20    37 1
    39    21    38 1
    40    21    39 1
    41    21    40 1
@<TRIPOS>SUBSTRUCTURE
     1 TRR         1 TEMP              0 ****  ****    0 ROOT
