@<TRIPOS>MOLECULE
molecule
   61    61     1     0     0
SMALL
bcc


@<TRIPOS>ATOM
      1 C25          0.0000     0.0000     0.0000 c3         1 TRT       0.114700
      2 O24          1.4280     0.0000     0.0000 os         1 TRT      -0.397600
      3 C23          1.8420     0.0000     1.3670 c3         1 TRT       0.126400
      4 C22          3.3700    -0.0000     1.4380 c3         1 TRT       0.125400
      5 O21          3.8770     1.1670     0.7880 os         1 TRT      -0.382600
      6 C20          5.3010     1.1090     0.8880 c3         1 TRT       0.126400
      7 C19          5.9100     2.3370     0.2090 c3         1 TRT       0.126400
      8 O18          5.4350     3.5220     0.8510 os         1 TRT      -0.383600
      9 C17          6.0360     4.6270     0.1740 c3         1 TRT       0.122400
     10 C16          5.5670     5.9350     0.8160 c3         1 TRT       0.118400
     11 O15          5.9500     5.9540     2.1920 os         1 TRT      -0.286900
     12 C12          5.5090     7.1310     2.7060 ca         1 TRT       0.117100
     13 C13          5.7360     7.4350     4.0410 ca         1 TRT      -0.189500
     14 C14          5.2870     8.6330     4.5600 ca         1 TRT      -0.093500
     15 C11          4.8340     8.0330     1.8980 ca         1 TRT      -0.189500
     16 C10          4.3810     9.2270     2.4240 ca         1 TRT      -0.093500
     17 C9           4.6110     9.5290     3.7530 ca         1 TRT      -0.105300
     18 C6           4.1210    10.8350     4.3230 c3         1 TRT      -0.013700
     19 C8           3.1450    10.5580     5.4680 c3         1 TRT      -0.093600
     20 C7           5.3110    11.6380     4.8510 c3         1 TRT      -0.093600
     21 C5           3.4110    11.6340     3.2300 c3         1 TRT      -0.064400
     22 C1           2.6590    12.8070     3.8630 c3         1 TRT      -0.069000
     23 C2           3.5510    13.4810     4.9080 c3         1 TRT      -0.090100
     24 C4           2.2900    13.8210     2.7790 c3         1 TRT      -0.090100
     25 C3           1.3840    12.2930     4.5340 c3         1 TRT      -0.090100
     26 H251        -0.3610    -1.0000     0.2080 h1         1 TRT       0.030033
     27 H252        -0.3610     0.6800     0.7620 h1         1 TRT       0.030033
     28 H253        -0.3610     0.3200    -0.9700 h1         1 TRT       0.030033
     29 H231         1.4580     0.8850     1.8600 h1         1 TRT       0.034200
     30 H232         1.4580    -0.8840     1.8610 h1         1 TRT       0.034200
     31 H221         3.7540    -0.8850     0.9440 h1         1 TRT       0.032200
     32 H222         3.6830    -0.0010     2.4750 h1         1 TRT       0.032200
     33 H201         5.6620     0.2110     0.4010 h1         1 TRT       0.033700
     34 H202         5.5900     1.0950     1.9320 h1         1 TRT       0.033700
     35 H191         6.9900     2.2940     0.2840 h1         1 TRT       0.033700
     36 H192         5.6210     2.3520    -0.8350 h1         1 TRT       0.033700
     37 H171         7.1140     4.5540     0.2510 h1         1 TRT       0.035200
     38 H172         5.7460     4.6120    -0.8690 h1         1 TRT       0.035200
     39 H161         6.0220     6.7730     0.3030 h1         1 TRT       0.050700
     40 H162         4.4890     6.0080     0.7400 h1         1 TRT       0.050700
     41 H13          6.2660     6.7340     4.6740 ha         1 TRT       0.140500
     42 H14          5.4650     8.8710     5.6020 ha         1 TRT       0.135500
     43 H11          4.6540     7.7970     0.8560 ha         1 TRT       0.140500
     44 H10          3.8530     9.9310     1.7930 ha         1 TRT       0.135500
     45 H8C1         3.0610    11.4400     6.0920 hc         1 TRT       0.040867
     46 H8C2         2.1730    10.3080     5.0620 hc         1 TRT       0.040867
     47 H8C3         3.5120     9.7290     6.0620 hc         1 TRT       0.040867
     48 H7C1         5.0160    12.1760     5.7440 hc         1 TRT       0.040867
     49 H7C2         6.1250    10.9640     5.0880 hc         1 TRT       0.040867
     50 H7C3         5.6350    12.3430     4.0950 hc         1 TRT       0.040867
     51 H5C1         2.7090    10.9920     2.7120 hc         1 TRT       0.045700
     52 H5C2         4.1430    12.0120     2.5260 hc         1 TRT       0.045700
     53 H2C1         3.6590    12.8280     5.7660 hc         1 TRT       0.036922
     54 H2C2         4.5260    13.6770     4.4780 hc         1 TRT       0.036922
     55 H2C3         3.0990    14.4140     5.2200 hc         1 TRT       0.036922
     56 H4C1         3.1910    14.1690     2.2880 hc         1 TRT       0.036922
     57 H4C2         1.6400    13.3510     2.0510 hc         1 TRT       0.036922
     58 H4C3         1.7780    14.6620     3.2310 hc         1 TRT       0.036922
     59 H3C1         0.5680    12.9760     4.3310 hc         1 TRT       0.036922
     60 H3C2         1.5410    12.2260     5.6040 hc         1 TRT       0.036922
     61 H3C3         1.1390    11.3120     4.1430 hc         1 TRT       0.036922
@<TRIPOS>BOND
     1     1     2 1
     2     1    26 1
     3     1    27 1
     4     1    28 1
     5     2     3 1
     6     3     4 1
     7     3    29 1
     8     3    30 1
     9     4     5 1
    10     4    31 1
    11     4    32 1
    12     5     6 1
    13     6     7 1
    14     6    33 1
    15     6    34 1
    16     7     8 1
    17     7    35 1
    18     7    36 1
    19     8     9 1
    20     9    10 1
    21     9    37 1
    22     9    38 1
    23    10    11 1
    24    10    39 1
    25    10    40 1
    26    11    12 1
    27    12    13 ar
    28    12    15 ar
    29    13    14 ar
    30    13    41 1
    31    14    17 ar
    32    14    42 1
    33    15    16 ar
    34    15    43 1
    35    16    17 ar
    36    16    44 1
    37    17    18 1
    38    18    19 1
    39    18    20 1
    40    18    21 1
    41    19    45 1
    42    19    46 1
    43    19    47 1
    44    20    48 1
    45    20    49 1
    46    20    50 1
    47    21    22 1
    48    21    51 1
    49    21    52 1
    50    22    23 1
    51    22    24 1
    52    22    25 1
    53    23    53 1
    54    23    54 1
    55    23    55 1
    56    24    56 1
    57    24    57 1
    58    24    58 1
    59    25    59 1
    60    25    60 1
    61    25    61 1
@<TRIPOS>SUBSTRUCTURE
     1 TRT         1 TEMP              0 ****  ****    0 ROOT
