@<TRIPOS>MOLECULE
TRT
   61    61     1     0     0
SMALL
bcc


@<TRIPOS>ATOM
      1 C25         1.6990   -2.9390   -1.6200 c3        1 TRT      0.117700
      2 O24         1.8290   -2.1470   -0.4520 os        1 TRT     -0.424600
      3 C23         1.6390   -0.7560   -0.7090 c3        1 TRT      0.123400
      4 C22         1.9610   -0.0280    0.5920 c3        1 TRT      0.127400
      5 O21         3.1790    0.6790    0.3690 os        1 TRT     -0.429600
      6 C20         3.6870    1.2710    1.5630 c3        1 TRT      0.127400
      7 C19         4.8770    2.1290    1.1500 c3        1 TRT      0.127400
      8 O18         4.4420    3.4860    1.2200 os        1 TRT     -0.427600
      9 C17         5.4130    4.3920    0.7030 c3        1 TRT      0.126400
     10 C16         4.9060    5.7950    1.0220 c3        1 TRT      0.125400
     11 O15         5.7560    6.2860    2.0660 os        1 TRT     -0.332900
     12 C12         5.4200    7.5210    2.5840 ca        1 TRT      0.124100
     13 C13         6.2160    7.9490    3.6640 ca        1 TRT     -0.180500
     14 C14         5.9630    9.1810    4.2480 ca        1 TRT     -0.098500
     15 C11         4.3920    8.3380    2.1070 ca        1 TRT     -0.180500
     16 C10         4.1550    9.5730    2.7140 ca        1 TRT     -0.098500
     17 C9          4.9210   10.0120    3.7960 ca        1 TRT     -0.101300
     18 C6          4.7030   11.3490    4.4830 c3        1 TRT      0.010300
     19 C8          4.5720   11.1160    5.9830 c3        1 TRT     -0.087100
     20 C7          5.9380   12.2060    4.2050 c3        1 TRT     -0.087100
     21 C5          3.4370   12.0120    3.9240 c3        1 TRT     -0.064400
     22 C1          2.8210   13.2710    4.5480 c3        1 TRT     -0.047000
     23 C2          3.8330   14.3430    4.9070 c3        1 TRT     -0.088100
     24 C4          1.8750   13.8560    3.4920 c3        1 TRT     -0.088100
     25 C3          1.9790   12.9350    5.7720 c3        1 TRT     -0.088100
     26 H251        0.6780   -2.8280   -2.0600 h1        1 TRT      0.032700
     27 H252        2.4720   -2.6550   -2.3770 h1        1 TRT      0.032700
     28 H253        1.8620   -3.9870   -1.2660 h1        1 TRT      0.032700
     29 H231        2.3200   -0.4180   -1.5340 h1        1 TRT      0.042700
     30 H232        0.5720   -0.5790   -1.0050 h1        1 TRT      0.042700
     31 H221        1.1510    0.7060    0.8430 h1        1 TRT      0.044200
     32 H222        2.0840   -0.7570    1.4360 h1        1 TRT      0.044200
     33 H201        2.8950    1.8970    2.0530 h1        1 TRT      0.044700
     34 H202        4.0150    0.4600    2.2650 h1        1 TRT      0.044700
     35 H191        5.2050    1.8800    0.1060 h1        1 TRT      0.044700
     36 H192        5.7320    1.9800    1.8610 h1        1 TRT      0.044700
     37 H171        6.4120    4.2100    1.1820 h1        1 TRT      0.046200
     38 H172        5.4950    4.2520   -0.4070 h1        1 TRT      0.046200
     39 H161        3.8410    5.7660    1.3740 h1        1 TRT      0.055200
     40 H162        5.0020    6.4620    0.1260 h1        1 TRT      0.055200
     41 H13         7.0280    7.3020    4.0260 ha        1 TRT      0.141000
     42 H14         6.6050    9.5060    5.0810 ha        1 TRT      0.134000
     43 H11         3.7650    8.0260    1.2600 ha        1 TRT      0.141000
     44 H10         3.3440   10.1890    2.2980 ha        1 TRT      0.134000
     45 H8C1        4.5710   12.0920    6.5260 hc        1 TRT      0.037033
     46 H8C2        3.6220   10.5740    6.2060 hc        1 TRT      0.037033
     47 H8C3        5.4250   10.5140    6.3750 hc        1 TRT      0.037033
     48 H7C1        6.8680   11.5960    4.3100 hc        1 TRT      0.037033
     49 H7C2        5.9020   12.6170    3.1670 hc        1 TRT      0.037033
     50 H7C3        6.0060   13.0550    4.9250 hc        1 TRT      0.037033
     51 H5C1        3.6570   12.2560    2.8470 hc        1 TRT      0.041200
     52 H5C2        2.6210   11.2360    3.9420 hc        1 TRT      0.041200
     53 H2C1        4.4180   14.0560    5.8120 hc        1 TRT      0.034256
     54 H2C2        3.3060   15.3040    5.1300 hc        1 TRT      0.034256
     55 H2C3        4.5350   14.5150    4.0560 hc        1 TRT      0.034256
     56 H4C1        2.4520   14.2000    2.6000 hc        1 TRT      0.034256
     57 H4C2        1.3200   14.7280    3.9120 hc        1 TRT      0.034256
     58 H4C3        1.1350   13.0870    3.1660 hc        1 TRT      0.034256
     59 H3C1        1.4070   13.8380    6.0980 hc        1 TRT      0.034256
     60 H3C2        2.6140   12.6030    6.6270 hc        1 TRT      0.034256
     61 H3C3        1.2520   12.1220    5.5340 hc        1 TRT      0.034256
@<TRIPOS>BOND
     1    1    2 1   
     2    1   26 1   
     3    1   27 1   
     4    1   28 1   
     5    2    3 1   
     6    3    4 1   
     7    3   29 1   
     8    3   30 1   
     9    4    5 1   
    10    4   31 1   
    11    4   32 1   
    12    5    6 1   
    13    6    7 1   
    14    6   33 1   
    15    6   34 1   
    16    7    8 1   
    17    7   35 1   
    18    7   36 1   
    19    8    9 1   
    20    9   10 1   
    21    9   37 1   
    22    9   38 1   
    23   10   11 1   
    24   10   39 1   
    25   10   40 1   
    26   11   12 1   
    27   12   13 ar  
    28   12   15 ar  
    29   13   14 ar  
    30   13   41 1   
    31   14   17 ar  
    32   14   42 1   
    33   15   16 ar  
    34   15   43 1   
    35   16   17 ar  
    36   16   44 1   
    37   17   18 1   
    38   18   19 1   
    39   18   20 1   
    40   18   21 1   
    41   19   45 1   
    42   19   46 1   
    43   19   47 1   
    44   20   48 1   
    45   20   49 1   
    46   20   50 1   
    47   21   22 1   
    48   21   51 1   
    49   21   52 1   
    50   22   23 1   
    51   22   24 1   
    52   22   25 1   
    53   23   53 1   
    54   23   54 1   
    55   23   55 1   
    56   24   56 1   
    57   24   57 1   
    58   24   58 1   
    59   25   59 1   
    60   25   60 1   
    61   25   61 1   
@<TRIPOS>SUBSTRUCTURE
     1 TRT         1 TEMP              0 ****  ****    0 ROOT
