@<TRIPOS>MOLECULE
molecule
   29    30     1     0     0
SMALL
bcc


@<TRIPOS>ATOM
      1 S1           0.0000     0.0000     0.0000 sy         1 TRU       1.401200
      2 O17         -0.3960    -1.3030     0.4060 o          1 TRU      -0.589300
      3 O16         -0.3950     0.6510    -1.2010 o          1 TRU      -0.589300
      4 N10          1.6680     0.0000     0.0000 n7         1 TRU      -0.924100
      5 C9           2.3110     0.0000     1.3300 c3         1 TRU       0.483700
      6 C18          1.9200    -1.2680     2.0920 c3         1 TRU       0.127100
      7 Cl20         2.3520    -2.7170     1.1100 cl         1 TRU      -0.109400
      8 Cl19         2.8050    -1.3220     3.6630 cl         1 TRU      -0.109400
      9 N8           1.8590     1.1750     2.0700 nu         1 TRU      -0.747600
     10 C3           0.5190     1.5250     2.2070 ca         1 TRU       0.302600
     11 C4           0.1450     2.3520     3.2650 ca         1 TRU      -0.145000
     12 C5          -1.1720     2.7400     3.4100 ca         1 TRU       0.143400
     13 Cl11        -1.6290     3.7710     4.7310 cl         1 TRU      -0.066400
     14 C6          -2.1320     2.3010     2.5160 ca         1 TRU      -0.386500
     15 S12         -3.8100     2.8000     2.7060 sy         1 TRU       1.253200
     16 N15         -4.3650     2.1450     4.1210 nz         1 TRU      -0.812500
     17 O14         -4.5280     2.1440     1.6700 o          1 TRU      -0.510800
     18 O13         -3.7750     4.2050     2.9190 o          1 TRU      -0.510800
     19 C7          -1.7690     1.4750     1.4670 ca         1 TRU       0.128000
     20 C2          -0.4540     1.0860     1.3200 ca         1 TRU      -0.360500
     21 H10          2.2000     0.0000    -0.8480 hn         1 TRU       0.490800
     22 H9           3.3870     0.0400     1.2110 h2         1 TRU       0.128700
     23 H18          0.8530    -1.2640     2.2790 h2         1 TRU       0.106700
     24 HN8          2.3850     1.9750     1.7790 hn         1 TRU       0.438800
     25 H4           0.8910     2.6980     3.9700 ha         1 TRU       0.189000
     26 H151        -4.0140     1.2120     4.2170 hn         1 TRU       0.495467
     27 H152        -4.0510     2.7010     4.8920 hn         1 TRU       0.495467
     28 H7          -2.5180     1.1300     0.7650 ha         1 TRU       0.182000
     29 H153        -5.3660     2.1740     4.1330 hn         1 TRU       0.495467
@<TRIPOS>BOND
     1     1     2 2
     2     1     3 2
     3     1     4 1
     4     1    20 1
     5     4     5 1
     6     4    21 1
     7     5     6 1
     8     5     9 1
     9     5    22 1
    10     6     7 1
    11     6     8 1
    12     6    23 1
    13     9    10 1
    14     9    24 1
    15    10    11 ar
    16    10    20 ar
    17    11    12 ar
    18    11    25 1
    19    12    13 1
    20    12    14 ar
    21    14    15 1
    22    14    19 ar
    23    15    16 1
    24    15    17 2
    25    15    18 2
    26    16    26 1
    27    16    27 1
    28    19    20 ar
    29    19    28 1
    30    29    16 1
@<TRIPOS>SUBSTRUCTURE
     1 TRU         1 TEMP              0 ****  ****    0 ROOT
