@<TRIPOS>MOLECULE
molecule
   50    51     1     0     0
SMALL
bcc


@<TRIPOS>ATOM
      1 C1           0.0000     0.0000     0.0000 ca         1 TRZ      -0.031300
      2 C2           1.3780     0.0000     0.0000 ca         1 TRZ      -0.140000
      3 C3           2.0810     0.0000     1.1960 ca         1 TRZ      -0.066300
      4 C4           1.3990     0.0010     2.4020 ca         1 TRZ      -0.111300
      5 C5           0.0200    -0.0000     2.4150 ca         1 TRZ      -0.066000
      6 C           -0.6930     0.0010     1.2150 ca         1 TRZ      -0.171600
      7 C9           3.5730    -0.0010     1.4510 c3         1 TRZ      -0.015700
      8 C10          3.7310     0.4400     2.9210 c3         1 TRZ      -0.063700
      9 C11          2.3910    -0.0000     3.5450 c3         1 TRZ      -0.010400
     10 C13          2.5180    -1.4040     4.1380 c3         1 TRZ      -0.069700
     11 C12          3.4700    -1.3700     5.3360 c3         1 TRZ      -0.089600
     12 C14          1.1410    -1.8910     4.5950 c3         1 TRZ      -0.089600
     13 C15          3.9060     1.9570     3.0220 c3         1 TRZ      -0.084100
     14 C16          4.2720     0.9920     0.5200 c3         1 TRZ      -0.078600
     15 C17          4.1470    -1.4050     1.2540 c3         1 TRZ      -0.078600
     16 C7          -0.7560    -0.0010    -1.3030 c3         1 TRZ      -0.040800
     17 C8          -2.9070     0.1310     2.5310 c3         1 TRZ      -0.156400
     18 C18         -4.4140     0.1030     2.2660 c3         1 TRZ      -0.173400
     19 C19         -5.1560     0.2340     3.5700 c          1 TRZ       0.889600
     20 O2          -4.5430     0.3380     4.6070 o          1 TRZ      -0.856800
     21 O3          -6.4990     0.2340     3.5810 o          1 TRZ      -0.856800
     22 C6          -2.1640     0.0010     1.2270 c          1 TRZ       0.565700
     23 O           -2.7790    -0.1030     0.1870 o          1 TRZ      -0.547100
     24 H2           1.9150    -0.0010    -0.9400 ha         1 TRZ       0.123000
     25 H5          -0.5110     0.0000     3.3590 ha         1 TRZ       0.153000
     26 H10          4.5590    -0.0800     3.3880 hc         1 TRZ       0.056700
     27 H11          2.0840     0.7080     4.3060 hc         1 TRZ       0.062700
     28 H13          2.9080    -2.0790     3.3860 hc         1 TRZ       0.052700
     29 H121         4.4910    -1.4730     4.9890 hc         1 TRZ       0.034867
     30 H122         3.3600    -0.4260     5.8570 hc         1 TRZ       0.034867
     31 H123         3.2330    -2.1840     6.0090 hc         1 TRZ       0.034867
     32 H141         0.5650    -2.2060     3.7340 hc         1 TRZ       0.034867
     33 H142         0.6230    -1.0860     5.1020 hc         1 TRZ       0.034867
     34 H143         1.2600    -2.7270     5.2740 hc         1 TRZ       0.034867
     35 H151         3.1160     2.4490     2.4670 hc         1 TRZ       0.035700
     36 H152         3.8590     2.2580     4.0610 hc         1 TRZ       0.035700
     37 H153         4.8670     2.2380     2.6080 hc         1 TRZ       0.035700
     38 H161         3.7340     1.9330     0.5270 hc         1 TRZ       0.034700
     39 H162         4.2880     0.5930    -0.4870 hc         1 TRZ       0.034700
     40 H163         5.2870     1.1540     0.8610 hc         1 TRZ       0.034700
     41 H171         4.5460    -1.4950     0.2510 hc         1 TRZ       0.034700
     42 H172         3.3630    -2.1390     1.3980 hc         1 TRZ       0.034700
     43 H173         4.9380    -1.5750     1.9740 hc         1 TRZ       0.034700
     44 H71         -1.4050     0.8660    -1.3450 hc         1 TRZ       0.048367
     45 H72         -0.0550     0.0330    -2.1280 hc         1 TRZ       0.048367
     46 H73         -1.3530    -0.9020    -1.3740 hc         1 TRZ       0.048367
     47 H81         -2.6400    -0.6930     3.1810 hc         1 TRZ       0.070700
     48 H82         -2.6410     1.0670     3.0060 hc         1 TRZ       0.070700
     49 H181        -4.6810     0.9260     1.6140 hc         1 TRZ       0.041700
     50 H182        -4.6800    -0.8340     1.7910 hc         1 TRZ       0.041700
@<TRIPOS>BOND
     1     1     2 ar
     2     1     6 ar
     3     1    16 1
     4     2     3 ar
     5     2    24 1
     6     3     4 ar
     7     3     7 1
     8     4     5 ar
     9     4     9 1
    10     5     6 ar
    11     5    25 1
    12     6    22 1
    13     7     8 1
    14     7    14 1
    15     7    15 1
    16     8     9 1
    17     8    13 1
    18     8    26 1
    19     9    10 1
    20     9    27 1
    21    10    11 1
    22    10    12 1
    23    10    28 1
    24    11    29 1
    25    11    30 1
    26    11    31 1
    27    12    32 1
    28    12    33 1
    29    12    34 1
    30    13    35 1
    31    13    36 1
    32    13    37 1
    33    14    38 1
    34    14    39 1
    35    14    40 1
    36    15    41 1
    37    15    42 1
    38    15    43 1
    39    16    44 1
    40    16    45 1
    41    16    46 1
    42    17    18 1
    43    17    22 1
    44    17    47 1
    45    17    48 1
    46    18    19 1
    47    18    49 1
    48    18    50 1
    49    19    20 1
    50    19    21 1
    51    22    23 2
@<TRIPOS>SUBSTRUCTURE
     1 TRZ         1 TEMP              0 ****  ****    0 ROOT
