@<TRIPOS>MOLECULE
TRZ
   50    51     1     0     0
SMALL
bcc


@<TRIPOS>ATOM
      1 C1         -0.0470   -0.2680   -0.0480 ca        1 TRZ     -0.033300
      2 C2          1.3460   -0.0800   -0.0650 ca        1 TRZ     -0.138000
      3 C3          2.0490   -0.0520    1.1280 ca        1 TRZ     -0.071300
      4 C4          1.3820   -0.2260    2.3590 ca        1 TRZ     -0.099300
      5 C5          0.0030   -0.3700    2.3850 ca        1 TRZ     -0.080000
      6 C          -0.7180   -0.3990    1.1790 ca        1 TRZ     -0.161600
      7 C9          3.5230    0.1770    1.3260 c3        1 TRZ     -0.003700
      8 C10         3.6920    0.2650    2.8720 c3        1 TRZ     -0.057700
      9 C11         2.3330   -0.1430    3.5120 c3        1 TRZ     -0.010400
     10 C13         2.4780   -1.4410    4.3090 c3        1 TRZ     -0.055700
     11 C12         3.3160   -1.2000    5.5520 c3        1 TRZ     -0.094100
     12 C14         1.1410   -2.0240    4.7180 c3        1 TRZ     -0.094100
     13 C15         4.1170    1.6240    3.3750 c3        1 TRZ     -0.087100
     14 C16         3.9750    1.4290    0.5960 c3        1 TRZ     -0.079600
     15 C17         4.3100   -1.0140    0.7920 c3        1 TRZ     -0.079600
     16 C7         -0.7870   -0.3200   -1.3310 c3        1 TRZ     -0.057800
     17 C8         -2.8750    0.1380    2.3730 c3        1 TRZ     -0.162400
     18 C18        -4.3420    0.4100    2.1590 c3        1 TRZ     -0.193400
     19 C19        -5.0160    0.8160    3.4840 c         1 TRZ      0.909600
     20 O2         -4.5280    0.3770    4.5670 o         1 TRZ     -0.849800
     21 O3         -6.0330    1.5620    3.4180 o         1 TRZ     -0.849800
     22 C6         -2.2000   -0.5630    1.2360 c         1 TRZ      0.575700
     23 O          -2.7920   -1.2510    0.3940 o         1 TRZ     -0.556100
     24 H2          1.8700    0.0470   -1.0240 ha        1 TRZ      0.125000
     25 H5         -0.5350   -0.4530    3.3430 ha        1 TRZ      0.156000
     26 H10         4.4830   -0.4740    3.1750 hc        1 TRZ      0.046700
     27 H11         1.9820    0.6610    4.2170 hc        1 TRZ      0.064700
     28 H13         3.0060   -2.1940    3.6580 hc        1 TRZ      0.044700
     29 H121        2.7800   -0.5180    6.2550 hc        1 TRZ      0.035700
     30 H122        4.2970   -0.7350    5.2910 hc        1 TRZ      0.035700
     31 H123        3.5110   -2.1660    6.0760 hc        1 TRZ      0.035700
     32 H141        1.2960   -2.8900    5.4060 hc        1 TRZ      0.035700
     33 H142        0.5200   -1.2600    5.2470 hc        1 TRZ      0.035700
     34 H143        0.5790   -2.3840    3.8230 hc        1 TRZ      0.035700
     35 H151        3.3570    2.4030    3.1240 hc        1 TRZ      0.033367
     36 H152        4.2290    1.5910    4.4870 hc        1 TRZ      0.033367
     37 H153        5.0970    1.9240    2.9330 hc        1 TRZ      0.033367
     38 H161        5.0630    1.6100    0.7670 hc        1 TRZ      0.033867
     39 H162        3.4000    2.3210    0.9410 hc        1 TRZ      0.033867
     40 H163        3.8040    1.3060   -0.5020 hc        1 TRZ      0.033867
     41 H171        4.1100   -1.1450   -0.2980 hc        1 TRZ      0.033867
     42 H172        5.4040   -0.8510    0.9410 hc        1 TRZ      0.033867
     43 H173        4.0090   -1.9480    1.3240 hc        1 TRZ      0.033867
     44 H71        -0.1440    0.0010   -2.1860 hc        1 TRZ      0.049700
     45 H72        -1.6900    0.3390   -1.2890 hc        1 TRZ      0.049700
     46 H73        -1.1440   -1.3650   -1.5160 hc        1 TRZ      0.049700
     47 H81        -2.7770   -0.5060    3.2960 hc        1 TRZ      0.078200
     48 H82        -2.3400    1.1000    2.5870 hc        1 TRZ      0.078200
     49 H181       -4.8530   -0.5090    1.7750 hc        1 TRZ      0.035200
     50 H182       -4.4870    1.2220    1.4050 hc        1 TRZ      0.035200
@<TRIPOS>BOND
     1    1    2 ar  
     2    1    6 ar  
     3    1   16 1   
     4    2    3 ar  
     5    2   24 1   
     6    3    4 ar  
     7    3    7 1   
     8    4    5 ar  
     9    4    9 1   
    10    5    6 ar  
    11    5   25 1   
    12    6   22 1   
    13    7    8 1   
    14    7   14 1   
    15    7   15 1   
    16    8    9 1   
    17    8   13 1   
    18    8   26 1   
    19    9   10 1   
    20    9   27 1   
    21   10   11 1   
    22   10   12 1   
    23   10   28 1   
    24   11   29 1   
    25   11   30 1   
    26   11   31 1   
    27   12   32 1   
    28   12   33 1   
    29   12   34 1   
    30   13   35 1   
    31   13   36 1   
    32   13   37 1   
    33   14   38 1   
    34   14   39 1   
    35   14   40 1   
    36   15   41 1   
    37   15   42 1   
    38   15   43 1   
    39   16   44 1   
    40   16   45 1   
    41   16   46 1   
    42   17   18 1   
    43   17   22 1   
    44   17   47 1   
    45   17   48 1   
    46   18   19 1   
    47   18   49 1   
    48   18   50 1   
    49   19   20 1   
    50   19   21 1   
    51   22   23 2   
@<TRIPOS>SUBSTRUCTURE
     1 TRZ         1 TEMP              0 ****  ****    0 ROOT
