@<TRIPOS>MOLECULE
TS0
   51    52     1     0     0
SMALL
bcc


@<TRIPOS>ATOM
      1 O2          0.9360    0.4340    0.5300 o         1 TS0     -0.669500
      2 C2          2.0760   -0.0400    0.7360 c         1 TS0      0.808500
      3 N3          2.5710   -0.0520    2.0560 n         1 TS0     -0.595500
      4 N1          2.7930   -0.6730   -0.3230 n         1 TS0     -0.372100
      5 C8          4.0500   -1.1840    0.0100 cc        1 TS0      0.242200
      6 C9          4.5870   -1.1200    1.3150 cd        1 TS0     -0.336600
      7 C4          3.8710   -0.4850    2.3970 c         1 TS0      0.774700
      8 O4          4.2650   -0.3150    3.5690 o         1 TS0     -0.678500
      9 N7          4.9000   -1.9610   -0.8300 n         1 TS0     -0.309000
     10 C10         5.2240   -1.5340   -2.1810 c3        1 TS0     -0.012000
     11 C11         4.1120   -1.7190   -3.2310 c3        1 TS0      0.134100
     12 C12         4.1770   -0.5020   -4.1770 c3        1 TS0      0.074100
     13 C13         3.0700   -0.5270   -5.2420 c3        1 TS0      0.103100
     14 C14         2.8880    0.8770   -5.8380 c3        1 TS0      0.103400
     15 O26         4.0010    1.2310   -6.6360 oh        1 TS0     -0.630800
     16 O23         3.3680   -1.4510   -6.2770 oh        1 TS0     -0.616800
     17 O21         5.4130   -0.5180   -4.8730 oh        1 TS0     -0.683800
     18 O19         4.2900   -2.9450   -3.9220 oh        1 TS0     -0.618800
     19 C6          6.0530   -2.2810    0.0200 c         1 TS0      0.736500
     20 O6          6.9520   -3.0620   -0.3160 o         1 TS0     -0.601500
     21 N5          5.9180   -1.6800    1.3680 n         1 TS0     -0.223000
     22 C15         6.9350   -0.6220    1.5360 c3        1 TS0      0.036000
     23 C16         7.1210    0.2370    0.2880 c3        1 TS0     -0.155400
     24 C17         7.7680    1.5790    0.5120 c3        1 TS0     -0.094400
     25 C18         7.5560    2.4390   -0.7480 c3        1 TS0      0.204400
     26 O27         6.2500    2.8640   -0.8620 os        1 TS0     -0.575200
     27 P           5.2750    2.1940   -2.0780 p5        1 TS0      1.358900
     28 O33         4.5770    3.3660   -2.6770 o         1 TS0     -0.936500
     29 O31         6.1990    1.4080   -2.9900 o         1 TS0     -0.936500
     30 O32         4.4220    1.1750   -1.3430 o         1 TS0     -0.936500
     31 H3          2.0580    0.4730    2.7270 hn        1 TS0      0.325500
     32 H1          2.8180   -0.1030   -1.1770 hn        1 TS0      0.402500
     33 H101        5.5180   -0.4180   -2.1630 h1        1 TS0      0.123200
     34 H102        6.1140   -2.1440   -2.5090 h1        1 TS0      0.123200
     35 H11         3.0890   -1.7940   -2.7720 h1        1 TS0      0.063700
     36 H12         4.0950    0.4360   -3.5410 h1        1 TS0      0.126700
     37 H13         2.1080   -0.8920   -4.7940 h1        1 TS0      0.065700
     38 H141        2.0170    0.8830   -6.5440 h1        1 TS0      0.051700
     39 H142        2.7320    1.6290   -5.0200 h1        1 TS0      0.051700
     40 H26         4.7650    1.2860   -6.0400 ho        1 TS0      0.439000
     41 H23         4.2120   -1.1660   -6.6540 ho        1 TS0      0.417000
     42 H21         6.0330    0.0510   -4.3640 ho        1 TS0      0.497000
     43 H19         4.8660   -2.7580   -4.6750 ho        1 TS0      0.409000
     44 H151        7.8940   -1.1470    1.7980 h1        1 TS0      0.054200
     45 H152        6.6170    0.0120    2.4090 h1        1 TS0      0.054200
     46 H161        6.1090    0.4690   -0.1870 hc        1 TS0      0.084700
     47 H162        7.7150   -0.3440   -0.4680 hc        1 TS0      0.084700
     48 H171        7.3020    2.0930    1.3900 hc        1 TS0      0.012200
     49 H172        8.8630    1.4690    0.7130 hc        1 TS0      0.012200
     50 H181        7.8660    1.8550   -1.6610 h1        1 TS0      0.005700
     51 H182        8.2220    3.3480   -0.6510 h1        1 TS0      0.005700
@<TRIPOS>BOND
     1    1    2 2
     2    2    3 1
     3    2    4 1
     4    3    7 1
     5    3   31 1
     6    4    5 1
     7    4   32 1
     8    5    6 2
     9    5    9 1
    10    6    7 1
    11    6   21 1
    12    7    8 2
    13    9   10 1
    14    9   19 1
    15   10   11 1
    16   10   33 1
    17   10   34 1
    18   11   12 1
    19   11   18 1
    20   11   35 1
    21   12   13 1
    22   12   17 1
    23   12   36 1
    24   13   14 1
    25   13   16 1
    26   13   37 1
    27   14   15 1
    28   14   38 1
    29   14   39 1
    30   15   40 1
    31   16   41 1
    32   17   42 1
    33   18   43 1
    34   19   20 2
    35   19   21 1
    36   21   22 1
    37   22   23 1
    38   22   44 1
    39   22   45 1
    40   23   24 1
    41   23   46 1
    42   23   47 1
    43   24   25 1
    44   24   48 1
    45   24   49 1
    46   25   26 1
    47   25   50 1
    48   25   51 1
    49   26   27 1
    50   27   28 1
    51   27   29 1
    52   27   30 1
@<TRIPOS>SUBSTRUCTURE
     1 TS0         1 TEMP              0 ****  ****    0 ROOT
