@<TRIPOS>MOLECULE
TS1
   51    52     1     0     0
SMALL
bcc


@<TRIPOS>ATOM
      1 O2          0.2680    0.0120   -0.5420 o         1 TS1     -0.680500
      2 C2          1.3810   -0.2640   -0.0340 c         1 TS1      0.816500
      3 N3          1.5800   -0.0750    1.3460 n         1 TS1     -0.592500
      4 N1          2.4040   -0.8360   -0.8150 n         1 TS1     -0.405100
      5 C8          3.6140   -1.1120   -0.2170 cc        1 TS1      0.240200
      6 C9          3.8230   -0.9080    1.1720 cd        1 TS1     -0.329600
      7 C4          2.7980   -0.3430    2.0120 c         1 TS1      0.768700
      8 O4          2.8650   -0.0900    3.2330 o         1 TS1     -0.680500
      9 N7          4.7430   -1.7440   -0.7950 n         1 TS1     -0.295000
     10 C10         5.2850   -1.3390   -2.0800 c3        1 TS1      0.013000
     11 C11         4.4510   -1.5830   -3.3540 c3        1 TS1      0.145100
     12 C12         4.1130   -0.2350   -4.0160 c3        1 TS1      0.062100
     13 C13         3.9650   -0.3210   -5.5390 c3        1 TS1      0.105100
     14 C14         5.3340   -0.1150   -6.1980 c3        1 TS1      0.052400
     15 O26         5.1610    0.1670   -7.5820 oh        1 TS1     -0.645800
     16 O23         3.4000   -1.5780   -5.9060 oh        1 TS1     -0.631800
     17 O21         2.9050    0.2660   -3.4700 oh        1 TS1     -0.668800
     18 O19         3.2850   -2.3530   -3.0970 oh        1 TS1     -0.624800
     19 C6          5.7050   -1.8580    0.3060 c         1 TS1      0.752500
     20 O6          6.7680   -2.4870    0.2210 o         1 TS1     -0.603500
     21 N5          5.1360   -1.3420    1.5570 n         1 TS1     -0.241000
     22 C15         5.9520   -0.3330    2.2270 c3        1 TS1      0.044000
     23 C16         6.2770    0.9340    1.4330 c3        1 TS1     -0.117400
     24 C17         7.5720    0.8160    0.6610 c3        1 TS1     -0.111400
     25 C18         7.6990    1.8850   -0.4340 c3        1 TS1      0.215400
     26 O27         7.2870    1.3920   -1.6530 os        1 TS1     -0.583200
     27 P           6.1200    2.3180   -2.4890 p5        1 TS1      1.337900
     28 O33         6.3480    1.9060   -3.9230 o         1 TS1     -0.925500
     29 O31         4.8470    1.6650   -1.9710 o         1 TS1     -0.925500
     30 O32         6.3960    3.7280   -2.0750 o         1 TS1     -0.925500
     31 H3          0.8520    0.3850    1.8420 hn        1 TS1      0.331500
     32 H1          2.3190   -0.8280   -1.8230 hn        1 TS1      0.405500
     33 H101        5.5380   -0.2110   -2.0320 h1        1 TS1      0.123700
     34 H102        6.2480   -1.9150   -2.1880 h1        1 TS1      0.123700
     35 H11         5.0940   -2.1730   -4.0710 h1        1 TS1      0.027700
     36 H12         4.9600    0.5190   -3.8070 h1        1 TS1      0.194700
     37 H13         3.2600    0.4910   -5.8780 h1        1 TS1      0.039700
     38 H141        5.9000    0.7110   -5.6660 h1        1 TS1      0.106200
     39 H142        5.9260   -1.0670   -6.1700 h1        1 TS1      0.106200
     40 H26         4.9710    1.1090   -7.6420 ho        1 TS1      0.396000
     41 H23         3.5420   -1.6650   -6.8560 ho        1 TS1      0.390000
     42 H21         3.1740    1.0080   -2.8860 ho        1 TS1      0.479000
     43 H19         2.6680   -2.1460   -3.8120 ho        1 TS1      0.419000
     44 H151        6.9070   -0.8500    2.5250 h1        1 TS1      0.055700
     45 H152        5.3780   -0.0520    3.1560 h1        1 TS1      0.055700
     46 H161        6.3490    1.7900    2.1550 hc        1 TS1      0.065200
     47 H162        5.4430    1.1770    0.7170 hc        1 TS1      0.065200
     48 H171        8.4350    0.9050    1.3720 hc        1 TS1      0.021200
     49 H172        7.6360   -0.1930    0.1750 hc        1 TS1      0.021200
     50 H181        8.7950    2.1630   -0.4940 h1        1 TS1      0.002200
     51 H182        7.1180    2.8100   -0.1570 h1        1 TS1      0.002200
@<TRIPOS>BOND
     1    1    2 2   
     2    2    3 1   
     3    2    4 1   
     4    3    7 1   
     5    3   31 1   
     6    4    5 1   
     7    4   32 1   
     8    5    6 2   
     9    5    9 1   
    10    6    7 1   
    11    6   21 1   
    12    7    8 2   
    13    9   10 1   
    14    9   19 1   
    15   10   11 1   
    16   10   33 1   
    17   10   34 1   
    18   11   12 1   
    19   11   18 1   
    20   11   35 1   
    21   12   13 1   
    22   12   17 1   
    23   12   36 1   
    24   13   14 1   
    25   13   16 1   
    26   13   37 1   
    27   14   15 1   
    28   14   38 1   
    29   14   39 1   
    30   15   40 1   
    31   16   41 1   
    32   17   42 1   
    33   18   43 1   
    34   19   20 2   
    35   19   21 1   
    36   21   22 1   
    37   22   23 1   
    38   22   44 1   
    39   22   45 1   
    40   23   24 1   
    41   23   46 1   
    42   23   47 1   
    43   24   25 1   
    44   24   48 1   
    45   24   49 1   
    46   25   26 1   
    47   25   50 1   
    48   25   51 1   
    49   26   27 1   
    50   27   28 1   
    51   27   29 1   
    52   27   30 1   
@<TRIPOS>SUBSTRUCTURE
     1 TS1         1 TEMP              0 ****  ****    0 ROOT
