@<TRIPOS>MOLECULE
TS2
   95    95     1     0     0
SMALL
bcc


@<TRIPOS>ATOM
      1 N1           0.0000     0.0000     0.0000 nz         1 TS2       0.081400
      2 CA1          1.4680     0.0000     0.0000 c3         1 TS2      -0.207500
      3 C1           1.9700     0.0000     1.4210 c          1 TS2       0.955600
      4 OE1          1.3170     0.5250     2.2920 o          1 TS2      -0.813300
      5 OE2          3.1430    -0.5800     1.7190 o          1 TS2      -0.813300
      6 CB1          1.9780     1.2480    -0.7230 c3         1 TS2      -0.008400
      7 CG1          1.4690     1.2470    -2.1650 c3         1 TS2      -0.117400
      8 CD1          1.9720     2.4770    -2.8760 c          1 TS2       0.576100
      9 O1           2.6680     3.2760    -2.2870 o          1 TS2      -0.620100
     10 N2           1.6460     2.6890    -4.1660 ns         1 TS2      -0.187900
     11 CA2          2.1350     3.8850    -4.8570 c3         1 TS2      -0.048300
     12 C2           1.1420     5.0050    -4.6850 c          1 TS2       0.563100
     13 O2           0.6060     5.5080    -5.6500 o          1 TS2      -0.633100
     14 CB2          2.3050     3.5790    -6.3470 c3         1 TS2       0.070700
     15 SG2          4.0470     3.2090    -6.6930 ss         1 TS2      -0.233100
     16 N3           0.8590     5.4440    -3.4240 ns         1 TS2      -0.189900
     17 CA3         -0.1260     6.5460    -3.3410 c3         1 TS2      -0.055000
     18 C3           0.5770     7.7850    -2.8470 c          1 TS2       0.555100
     19 O3           1.4150     7.7080    -1.9750 o          1 TS2      -0.632100
     20 N4           7.0800     7.9370    -9.3710 ns         1 TS2      -0.185900
     21 CA4          7.5400     9.0660    -8.5350 c3         1 TS2      -0.040000
     22 C4           6.3440     9.8910    -8.1370 c          1 TS2       0.559100
     23 O4           5.2280     9.5680    -8.4860 o          1 TS2      -0.627100
     24 C5           6.7150     6.8040    -8.7140 c          1 TS2       0.572100
     25 O5           6.7830     6.7450    -7.5050 o          1 TS2      -0.622100
     26 CA5          6.2270     5.6210    -9.5100 c3         1 TS2      -0.043300
     27 N5           7.2370     5.2510   -10.5050 ns         1 TS2      -0.187900
     28 CB5          5.9830     4.4390    -8.5680 c3         1 TS2       0.060700
     29 SG5          4.2180     4.0230    -8.5660 ss         1 TS2      -0.217100
     30 CA6          9.0380     5.8040   -15.0950 c3         1 TS2      -0.206500
     31 C6           8.7830     6.5570   -16.3750 c          1 TS2       0.954600
     32 OE6          9.2930     7.6370   -16.5530 o          1 TS2      -0.812800
     33 OE7          7.9850     6.0270   -17.3170 o          1 TS2      -0.812800
     34 N6          10.3740     6.1440   -14.5880 nz         1 TS2       0.080400
     35 CB6          7.9850     6.1890   -14.0560 c3         1 TS2      -0.007400
     36 CG6          8.2440     5.4250   -12.7570 c3         1 TS2      -0.118400
     37 CD6          7.2060     5.8040   -11.7330 c          1 TS2       0.575100
     38 O6           6.3430     6.6070   -12.0150 o          1 TS2      -0.624100
     39 N1'          6.5360    11.0090    -7.3760 ns         1 TS2      -0.204900
     40 C1'          5.3070    11.7620    -7.0350 c3         1 TS2       0.020000
     41 C2'          5.4780    12.3740    -5.6430 c3         1 TS2      -0.067400
     42 N2'          3.7320    13.8220    -4.7200 n7         1 TS2      -0.569200
     43 C3'          4.8830    13.7840    -5.6310 c3         1 TS2       0.139800
     44 C4'          2.9240    12.6300    -5.0090 c3         1 TS2       0.086800
     45 C5'          2.3780    12.0550    -3.7010 c3         1 TS2      -0.020400
     46 C6'          1.1590    11.1810    -3.9960 c3         1 TS2      -0.044400
     47 C7'          0.9740    10.1660    -2.8660 c3         1 TS2       0.028000
     48 N3'          0.2550     8.9890    -3.3930 ns         1 TS2      -0.192900
     49 HN11        -0.3340     0.9380     0.0980 hn         1 TS2       0.210133
     50 HN12        -0.3340    -0.5540     0.7640 hn         1 TS2       0.210133
     51 HA1          1.8290    -0.8850    -0.5100 hx         1 TS2       0.085700
     52 HB11         1.6170     2.1330    -0.2130 hc         1 TS2       0.071200
     53 HB12         3.0610     1.2480    -0.7220 hc         1 TS2       0.071200
     54 HG11         1.8300     0.3620    -2.6740 hc         1 TS2       0.016200
     55 HG12         0.3860     1.2470    -2.1650 hc         1 TS2       0.016200
     56 HN2          1.1070     2.0090    -4.6640 hn         1 TS2       0.180500
     57 HA2          3.0890     4.1800    -4.4380 h1         1 TS2       0.099700
     58 HB21         1.9960     4.4380    -6.9300 h1         1 TS2       0.078200
     59 HB22         1.6950     2.7240    -6.6130 h1         1 TS2       0.078200
     60 HN3          1.5220     5.3090    -2.6860 hn         1 TS2       0.226500
     61 HA31        -0.5470     6.7320    -4.3210 h1         1 TS2       0.051700
     62 HA32        -0.9170     6.2760    -2.6510 h1         1 TS2       0.051700
     63 HN4          6.7490     8.1060   -10.3000 hn         1 TS2       0.209500
     64 HA41         8.2330     9.6780    -9.1000 h1         1 TS2       0.047700
     65 HA42         8.0310     8.6850    -7.6480 h1         1 TS2       0.047700
     66 HA5          5.3030     5.8790   -10.0120 h1         1 TS2       0.099700
     67 HN5          7.9390     4.5750   -10.2780 hn         1 TS2       0.180500
     68 HB51         6.2920     4.7070    -7.5650 h1         1 TS2       0.075700
     69 HB52         6.5560     3.5840    -8.9060 h1         1 TS2       0.075700
     70 HA6          8.9850     4.7390   -15.2860 hx         1 TS2       0.086700
     71 HN61        11.0020     6.2690   -15.3570 hn         1 TS2       0.210133
     72 HN62        10.3240     6.9910   -14.0570 hn         1 TS2       0.210133
     73 HB61         7.0000     5.9390   -14.4310 hc         1 TS2       0.070200
     74 HB62         8.0390     7.2540   -13.8650 hc         1 TS2       0.070200
     75 HG61         8.1910     4.3600   -12.9480 hc         1 TS2       0.016200
     76 HG62         9.2290     5.6750   -12.3810 hc         1 TS2       0.016200
     77 HN1'         7.4210    11.4750    -7.3850 hn         1 TS2       0.176500
     78 H1'1         5.1490    12.5490    -7.7620 h1         1 TS2       0.038200
     79 H1'2         4.4570    11.0900    -7.0350 h1         1 TS2       0.038200
     80 H2'1         6.5320    12.4240    -5.3980 hc         1 TS2       0.041200
     81 H2'2         4.9660    11.7590    -4.9130 hc         1 TS2       0.041200
     82 HN2'         3.1900    14.6440    -4.9010 hn         1 TS2       0.253800
     83 H3'1         4.5610    14.0490    -6.6310 h1         1 TS2       0.008700
     84 H3'2         5.6330    14.4890    -5.2950 h1         1 TS2       0.008700
     85 H4'1         2.0980    12.9010    -5.6560 h1         1 TS2       0.028200
     86 H4'2         3.5390    11.8870    -5.5010 h1         1 TS2       0.028200
     87 H5'1         3.1440    11.4570    -3.2220 hc         1 TS2       0.024200
     88 H5'2         2.0900    12.8660    -3.0430 hc         1 TS2       0.024200
     89 H6'1         0.2760    11.8050    -4.0690 hc         1 TS2       0.019200
     90 H6'2         1.3090    10.6560    -4.9320 hc         1 TS2       0.019200
     91 H7'1         0.3980    10.6150    -2.0660 h1         1 TS2       0.036200
     92 H7'2         1.9430     9.8620    -2.4890 h1         1 TS2       0.036200
     93 HN3'        -0.6190     9.1070    -3.8650 hn         1 TS2       0.177500
     94 H13         -0.3340    -0.3890    -0.8600 hn         1 TS2       0.210133
     95 H63         10.7080     5.4020   -14.0050 hn         1 TS2       0.210133
@<TRIPOS>BOND
     1     1     2 1   
     2     1    49 1   
     3     1    50 1   
     4     1    94 1   
     5     2     3 1   
     6     2     6 1   
     7     2    51 1   
     8     3     4 1   
     9     3     5 1   
    10     6     7 1   
    11     6    52 1   
    12     6    53 1   
    13     7     8 1   
    14     7    54 1   
    15     7    55 1   
    16     8     9 2   
    17     8    10 1   
    18    10    11 1   
    19    10    56 1   
    20    11    12 1   
    21    11    14 1   
    22    11    57 1   
    23    12    13 2   
    24    12    16 1   
    25    14    15 1   
    26    14    58 1   
    27    14    59 1   
    28    15    29 1   
    29    16    17 1   
    30    16    60 1   
    31    17    18 1   
    32    17    61 1   
    33    17    62 1   
    34    18    19 2   
    35    18    48 1   
    36    20    21 1   
    37    20    24 1   
    38    20    63 1   
    39    21    22 1   
    40    21    64 1   
    41    21    65 1   
    42    22    23 2   
    43    22    39 1   
    44    24    25 2   
    45    24    26 1   
    46    26    27 1   
    47    26    28 1   
    48    26    66 1   
    49    27    37 1   
    50    27    67 1   
    51    28    29 1   
    52    28    68 1   
    53    28    69 1   
    54    30    31 1   
    55    30    34 1   
    56    30    35 1   
    57    30    70 1   
    58    31    32 1   
    59    31    33 1   
    60    34    71 1   
    61    34    72 1   
    62    34    95 1   
    63    35    36 1   
    64    35    73 1   
    65    35    74 1   
    66    36    37 1   
    67    36    75 1   
    68    36    76 1   
    69    37    38 2   
    70    39    40 1   
    71    39    77 1   
    72    40    41 1   
    73    40    78 1   
    74    40    79 1   
    75    41    43 1   
    76    41    80 1   
    77    41    81 1   
    78    42    43 1   
    79    42    44 1   
    80    42    82 1   
    81    43    83 1   
    82    43    84 1   
    83    44    45 1   
    84    44    85 1   
    85    44    86 1   
    86    45    46 1   
    87    45    87 1   
    88    45    88 1   
    89    46    47 1   
    90    46    89 1   
    91    46    90 1   
    92    47    48 1   
    93    47    91 1   
    94    47    92 1   
    95    48    93 1   
@<TRIPOS>SUBSTRUCTURE
     1 TS2         1 TEMP              0 ****  ****    0 ROOT
