@<TRIPOS>MOLECULE
molecule
   97    96     1     0     0
SMALL
bcc


@<TRIPOS>ATOM
      1 N1           0.0000     0.0000     0.0000 nz         1 TS3      -0.796600
      2 CA1          1.4690     0.0000     0.0000 c3         1 TS3      -0.021500
      3 C1           1.9710     0.0000     1.4210 c          1 TS3       0.869600
      4 OE1          1.3180     0.5240     2.2920 o          1 TS3      -0.771300
      5 OE2          3.1430    -0.5810     1.7190 o          1 TS3      -0.771300
      6 CB1          1.9790     1.2480    -0.7220 c3         1 TS3      -0.075400
      7 CG1          1.4700     1.2480    -2.1640 c3         1 TS3      -0.174400
      8 CD1          1.9730     2.4770    -2.8760 c          1 TS3       0.664100
      9 O1           2.6700     3.2750    -2.2870 o          1 TS3      -0.568100
     10 N2           1.6470     2.6900    -4.1660 ns         1 TS3      -0.570900
     11 CA2          2.1360     3.8850    -4.8570 c3         1 TS3       0.066700
     12 C2           1.1440     4.2950    -5.9150 c          1 TS3       0.655100
     13 O2           0.1280     3.6520    -6.0760 o          1 TS3      -0.618100
     14 CB2          3.4840     3.5790    -5.5130 c3         1 TS3       0.005700
     15 SG2          4.6780     3.0850    -4.2410 sh         1 TS3      -0.357900
     16 N3           1.3850     5.3760    -6.6830 ns         1 TS3      -0.568900
     17 CA3          0.4210     5.7750    -7.7110 c3         1 TS3       0.037000
     18 C3           0.9240     7.0050    -8.4210 c          1 TS3       0.648100
     19 O3           1.9830     7.4990    -8.1020 o          1 TS3      -0.609100
     20 N4          -2.8410    17.2470   -19.9730 ns         1 TS3      -0.569900
     21 CA4         -1.8350    16.9040   -18.9640 c3         1 TS3       0.038000
     22 C4          -2.2790    15.6760   -18.2110 c          1 TS3       0.648100
     23 O4          -3.3300    15.1400   -18.4910 o          1 TS3      -0.611100
     24 C5          -2.6560    18.3180   -20.7710 c          1 TS3       0.656100
     25 O5          -1.6580    18.9960   -20.6540 o          1 TS3      -0.616100
     26 CA          -3.6890    18.6720   -21.8090 c3         1 TS3       0.065700
     27 N5          -3.2590    19.8660   -22.5400 ns         1 TS3      -0.568900
     28 CB          -3.8500    17.5050   -22.7860 c3         1 TS3       0.005700
     29 SG          -5.0940    17.9300   -24.0350 sh         1 TS3      -0.358900
     30 CA6         -4.5120    23.9700   -25.0320 c3         1 TS3      -0.021500
     31 C6          -5.7220    24.7420   -25.4910 c          1 TS3       0.869600
     32 OE6         -6.1990    25.5950   -24.7810 o          1 TS3      -0.771800
     33 OE7         -6.2700    24.4810   -26.6880 o          1 TS3      -0.771800
     34 N6          -3.6970    24.8170   -24.1500 nz         1 TS3      -0.797600
     35 CB6         -4.9620    22.7230   -24.2670 c3         1 TS3      -0.075400
     36 CG6         -3.7340    21.9400   -23.8020 c3         1 TS3      -0.174400
     37 CD6         -4.1750    20.7120   -23.0490 c          1 TS3       0.663100
     38 O6          -5.3580    20.4850   -22.9000 o          1 TS3      -0.570100
     39 N1'         -1.5060    15.1730   -17.2280 ns         1 TS3      -0.580900
     40 C1'         -1.9360    13.9790   -16.4970 c3         1 TS3       0.112000
     41 C2'         -0.8880    13.6200   -15.4430 c3         1 TS3      -0.103400
     42 N2'         -0.3290    12.0290   -13.6670 n7         1 TS3      -0.799200
     43 C3'         -1.3360    12.3730   -14.6790 c3         1 TS3       0.150800
     44 C4'         -0.8190    10.8300   -12.9750 c3         1 TS3       0.146800
     45 C5'          0.1880    10.4140   -11.9010 c3         1 TS3      -0.079400
     46 C6'         -0.3220     9.1660   -11.1790 c3         1 TS3      -0.102400
     47 C7'          0.6840     8.7490   -10.1050 c3         1 TS3       0.112000
     48 N3'          0.1960     7.5550    -9.4140 ns         1 TS3      -0.582900
     49 HN11        -0.3340    -0.6360    -0.6970 hn         1 TS3       0.438467
     50 HN12        -0.3340    -0.2850     0.8990 hn         1 TS3       0.438467
     51 HA1          1.8300    -0.8850    -0.5100 hx         1 TS3       0.101700
     52 HB11         3.0630     1.2470    -0.7210 hc         1 TS3       0.104200
     53 HB12         1.6190     2.1330    -0.2110 hc         1 TS3       0.104200
     54 HG11         0.3860     1.2490    -2.1640 hc         1 TS3       0.046700
     55 HG12         1.8300     0.3630    -2.6740 hc         1 TS3       0.046700
     56 HN2          1.1000     2.0140    -4.6620 hn         1 TS3       0.330500
     57 HA2          2.2560     4.6900    -4.1430 h1         1 TS3       0.116700
     58 HB21         3.8450     4.4640    -6.0240 h1         1 TS3       0.063700
     59 HB22         3.3630     2.7740    -6.2280 h1         1 TS3       0.063700
     60 HS2          5.8670     2.8970    -4.7990 hs         1 TS3       0.199800
     61 HN3          2.2400     5.8840    -6.5760 hn         1 TS3       0.345500
     62 HA31        -0.5340     5.9910    -7.2460 h1         1 TS3       0.072700
     63 HA32         0.3000     4.9690    -8.4250 h1         1 TS3       0.072700
     64 HN4         -3.6550    16.6760   -20.0820 hn         1 TS3       0.345500
     65 HA41        -1.7210    17.7300   -18.2720 h1         1 TS3       0.073200
     66 HA42        -0.8880    16.7070   -19.4500 h1         1 TS3       0.073200
     67 HA          -4.6370    18.8690   -21.3220 h1         1 TS3       0.116700
     68 HN5         -2.2860    20.0190   -22.7160 hn         1 TS3       0.330500
     69 HB1         -4.1680    16.6220   -22.2450 h1         1 TS3       0.063700
     70 HB2         -2.9020    17.3090   -23.2730 h1         1 TS3       0.063700
     71 HSG         -5.2910    16.8900   -24.8360 hs         1 TS3       0.199800
     72 HA6         -3.9250    23.6740   -25.8930 hx         1 TS3       0.101700
     73 HN61        -2.7290    24.6990   -24.3770 hn         1 TS3       0.438467
     74 HN62        -3.9550    25.7750   -24.2760 hn         1 TS3       0.438467
     75 HB61        -5.5640    22.0990   -24.9160 hc         1 TS3       0.104200
     76 HB62        -5.5480    23.0200   -23.4060 hc         1 TS3       0.104200
     77 HG61        -3.1320    22.5640   -23.1530 hc         1 TS3       0.047200
     78 HG62        -3.1470    21.6430   -24.6630 hc         1 TS3       0.047200
     79 HN1'        -0.6340    15.6100   -17.0050 hn         1 TS3       0.318500
     80 H1'1        -2.0500    13.1540   -17.1890 h1         1 TS3       0.056700
     81 H1'2        -2.8840    14.1760   -16.0100 h1         1 TS3       0.056700
     82 H2'1         0.0600    13.4240   -15.9300 hc         1 TS3       0.054200
     83 H2'2        -0.7740    14.4460   -14.7510 hc         1 TS3       0.054200
     84 HN2'        -0.2430    12.7810   -13.0130 hn         1 TS3       0.351800
     85 H3'1        -2.2840    12.5690   -14.1930 h1         1 TS3       0.038700
     86 H3'2        -1.4490    11.5470   -15.3710 h1         1 TS3       0.038700
     87 H4'1        -0.9390    10.0250   -13.6890 h1         1 TS3       0.035700
     88 H4'2        -1.7740    11.0460   -12.5110 h1         1 TS3       0.035700
     89 H5'1         0.3080    11.2200   -11.1880 hc         1 TS3       0.054200
     90 H5'2         1.1420    10.1980   -12.3660 hc         1 TS3       0.054200
     91 H6'1        -1.2760     9.3820   -10.7150 hc         1 TS3       0.046700
     92 H6'2        -0.4420     8.3600   -11.8930 hc         1 TS3       0.046700
     93 H7'1         1.6390     8.5330   -10.5690 h1         1 TS3       0.058200
     94 H7'2         0.8040     9.5550    -9.3910 h1         1 TS3       0.058200
     95 HN3'        -0.6790     7.1460    -9.6790 hn         1 TS3       0.317500
     96 H13         -0.3340     0.9200    -0.2080 hn         1 TS3       0.438467
     97 H63         -3.8530    24.5530   -23.1980 hn         1 TS3       0.438467
@<TRIPOS>BOND
     1     1     2 1
     2     1    49 1
     3     1    50 1
     4     2     3 1
     5     2     6 1
     6     2    51 1
     7     3     4 1
     8     3     5 1
     9     6     7 1
    10     6    52 1
    11     6    53 1
    12     7     8 1
    13     7    54 1
    14     7    55 1
    15     8     9 2
    16     8    10 1
    17    10    11 1
    18    10    56 1
    19    11    12 1
    20    11    14 1
    21    11    57 1
    22    12    13 2
    23    12    16 1
    24    14    15 1
    25    14    58 1
    26    14    59 1
    27    15    60 1
    28    16    17 1
    29    16    61 1
    30    17    18 1
    31    17    62 1
    32    17    63 1
    33    18    19 2
    34    18    48 1
    35    20    21 1
    36    20    24 1
    37    20    64 1
    38    21    22 1
    39    21    65 1
    40    21    66 1
    41    22    23 2
    42    22    39 1
    43    24    25 2
    44    24    26 1
    45    26    27 1
    46    26    28 1
    47    26    67 1
    48    27    37 1
    49    27    68 1
    50    28    29 1
    51    28    69 1
    52    28    70 1
    53    29    71 1
    54    30    31 1
    55    30    34 1
    56    30    35 1
    57    30    72 1
    58    31    32 1
    59    31    33 1
    60    34    73 1
    61    34    74 1
    62    35    36 1
    63    35    75 1
    64    35    76 1
    65    36    37 1
    66    36    77 1
    67    36    78 1
    68    37    38 2
    69    39    40 1
    70    39    79 1
    71    40    41 1
    72    40    80 1
    73    40    81 1
    74    41    43 1
    75    41    82 1
    76    41    83 1
    77    42    43 1
    78    42    44 1
    79    42    84 1
    80    43    85 1
    81    43    86 1
    82    44    45 1
    83    44    87 1
    84    44    88 1
    85    45    46 1
    86    45    89 1
    87    45    90 1
    88    46    47 1
    89    46    91 1
    90    46    92 1
    91    47    48 1
    92    47    93 1
    93    47    94 1
    94    48    95 1
    95    96     1 1
    96    97    34 1
@<TRIPOS>SUBSTRUCTURE
     1 TS3         1 TEMP              0 ****  ****    0 ROOT
