@<TRIPOS>MOLECULE
molecule
   64    63     1     0     0
SMALL
bcc


@<TRIPOS>ATOM
      1 N1           0.0000     0.0000     0.0000 nz         1 TS5      -0.797600
      2 CA1          1.4700     0.0000     0.0000 c3         1 TS5      -0.020500
      3 C1           1.9710     0.0000     1.4210 c          1 TS5       0.868600
      4 OE1          1.3180     0.5230     2.2920 o          1 TS5      -0.769800
      5 OE2          3.1430    -0.5810     1.7180 o          1 TS5      -0.769800
      6 CB1          1.9790     1.2480    -0.7220 c3         1 TS5      -0.075400
      7 CG1          1.4700     1.2480    -2.1640 c3         1 TS5      -0.174400
      8 CD1          1.9700     2.4780    -2.8750 c          1 TS5       0.664100
      9 O1           2.6680     3.2760    -2.2860 o          1 TS5      -0.568100
     10 N2           1.6460     2.6910    -4.1650 ns         1 TS5      -0.571900
     11 CA2          2.1340     3.8870    -4.8570 c3         1 TS5       0.067700
     12 C2           1.1420     4.2970    -5.9140 c          1 TS5       0.656100
     13 O2           0.1270     3.6530    -6.0750 o          1 TS5      -0.615100
     14 CB2          3.4810     3.5820    -5.5130 c3         1 TS5       0.004700
     15 SG2          4.6760     3.0900    -4.2410 sh         1 TS5      -0.351900
     16 N3           1.3810     5.3780    -6.6810 ns         1 TS5      -0.571900
     17 CA3          0.4180     5.7750    -7.7090 c3         1 TS5       0.040000
     18 C3           0.9190     7.0050    -8.4200 c          1 TS5       0.650100
     19 O3           1.9780     7.5000    -8.1000 o          1 TS5      -0.607100
     20 N1'          0.1920     7.5550    -9.4120 ns         1 TS5      -0.584900
     21 C1'          0.6780     8.7510   -10.1030 c3         1 TS5       0.114000
     22 C2'         -0.3280     9.1680   -11.1760 c3         1 TS5      -0.102400
     23 N2'         -0.7860    10.8160   -12.9290 n7         1 TS5      -0.795200
     24 C3'          0.1800    10.4160   -11.8990 c3         1 TS5       0.149800
     25 C4'         -0.2400    12.0120   -13.5810 c3         1 TS5       0.151800
     26 C5'         -1.2020    12.4850   -14.6710 c3         1 TS5      -0.078400
     27 C6'         -0.6340    13.7320   -15.3500 c3         1 TS5      -0.112400
     28 C7'         -1.5960    14.2040   -16.4410 c3         1 TS5       0.091800
     29 N3'         -1.0490    15.4020   -17.0920 nz         1 TS5      -0.810600
     30 HN11        -0.3330    -0.6300    -0.7030 hn         1 TS5       0.438467
     31 HN12        -0.3340    -0.2940     0.8970 hn         1 TS5       0.438467
     32 HA1          1.8310    -0.8850    -0.5100 hx         1 TS5       0.102700
     33 HB11         3.0630     1.2480    -0.7230 hc         1 TS5       0.104200
     34 HB12         1.6190     2.1330    -0.2120 hc         1 TS5       0.104200
     35 HG11         0.3860     1.2480    -2.1640 hc         1 TS5       0.047200
     36 HG12         1.8310     0.3640    -2.6750 hc         1 TS5       0.047200
     37 HN2          1.0930     2.0190    -4.6590 hn         1 TS5       0.330500
     38 HA2          2.2540     4.6930    -4.1440 h1         1 TS5       0.116700
     39 HB21         3.3610     2.7760    -6.2270 h1         1 TS5       0.061700
     40 HB22         3.8420     4.4670    -6.0250 h1         1 TS5       0.061700
     41 HG2          5.8660     2.9060    -4.8000 hs         1 TS5       0.199800
     42 HN3          2.2310     5.8950    -6.5660 hn         1 TS5       0.346500
     43 HA31         0.2980     4.9690    -8.4230 h1         1 TS5       0.073700
     44 HA32        -0.5370     5.9910    -7.2440 h1         1 TS5       0.073700
     45 HN1'        -0.6820     7.1450    -9.6780 hn         1 TS5       0.319500
     46 H1'1         0.7990     9.5560    -9.3890 h1         1 TS5       0.057200
     47 H1'2         1.6330     8.5350   -10.5670 h1         1 TS5       0.057200
     48 H2'1        -0.4490     8.3620   -11.8900 hc         1 TS5       0.056200
     49 H2'2        -1.2830     9.3830   -10.7120 hc         1 TS5       0.056200
     50 HN2'        -0.8780    10.0820   -13.6030 hn         1 TS5       0.355800
     51 H3'1         1.1350    10.2000   -12.3640 h1         1 TS5       0.042700
     52 H3'2         0.3010    11.2220   -11.1850 h1         1 TS5       0.042700
     53 H4'1        -0.1140    12.7980   -12.8460 h1         1 TS5       0.041700
     54 H4'2         0.7190    11.7760   -14.0240 h1         1 TS5       0.041700
     55 H5'1        -1.3280    11.7000   -15.4070 hc         1 TS5       0.064700
     56 H5'2        -2.1620    12.7210   -14.2280 hc         1 TS5       0.064700
     57 H6'1        -0.5090    14.5180   -14.6150 hc         1 TS5       0.066200
     58 H6'2         0.3260    13.4960   -15.7930 hc         1 TS5       0.066200
     59 H7'1        -2.5560    14.4400   -15.9980 hx         1 TS5       0.114200
     60 H7'2        -1.7210    13.4190   -17.1760 hx         1 TS5       0.114200
     61 HN31        -0.9340    16.1280   -16.4120 hn         1 TS5       0.457800
     62 HN32        -0.1620    15.1840   -17.5010 hn         1 TS5       0.457800
     63 H13         -0.3340     0.9230    -0.1960 hn         1 TS5       0.438467
     64 H3'3        -1.6760    15.7070   -17.8090 hn         1 TS5       0.457800
@<TRIPOS>BOND
     1     1     2 1
     2     1    30 1
     3     1    31 1
     4     2     3 1
     5     2     6 1
     6     2    32 1
     7     3     4 1
     8     3     5 1
     9     6     7 1
    10     6    33 1
    11     6    34 1
    12     7     8 1
    13     7    35 1
    14     7    36 1
    15     8     9 2
    16     8    10 1
    17    10    11 1
    18    10    37 1
    19    11    12 1
    20    11    14 1
    21    11    38 1
    22    12    13 2
    23    12    16 1
    24    14    15 1
    25    14    39 1
    26    14    40 1
    27    15    41 1
    28    16    17 1
    29    16    42 1
    30    17    18 1
    31    17    43 1
    32    17    44 1
    33    18    19 2
    34    18    20 1
    35    20    21 1
    36    20    45 1
    37    21    22 1
    38    21    46 1
    39    21    47 1
    40    22    24 1
    41    22    48 1
    42    22    49 1
    43    23    24 1
    44    23    25 1
    45    23    50 1
    46    24    51 1
    47    24    52 1
    48    25    26 1
    49    25    53 1
    50    25    54 1
    51    26    27 1
    52    26    55 1
    53    26    56 1
    54    27    28 1
    55    27    57 1
    56    27    58 1
    57    28    29 1
    58    28    59 1
    59    28    60 1
    60    29    61 1
    61    29    62 1
    62    63     1 1
    63    64    29 1
@<TRIPOS>SUBSTRUCTURE
     1 TS5         1 TEMP              0 ****  ****    0 ROOT
