@<TRIPOS>MOLECULE
TS6
    6     4     1     0     0
SMALL
bcc


@<TRIPOS>ATOM
      1 P          -0.0260    0.1890   -0.1420 p3        1 TS6      2.513000
      2 O1P         1.4470    0.0240    0.0250 o         1 TS6     -1.205333
      3 S2P        -0.9000    0.1950    2.1110 s         1 TS6     -1.016000
      4 O3P        -0.4670    1.4930   -0.7200 o         1 TS6     -1.205333
      5 O4P        -0.7890   -1.0240   -0.5750 o         1 TS6     -1.205333
      6 HS2P       -1.5960   -0.8780    1.7830 hs        1 TS6      0.117000
@<TRIPOS>BOND
     1    1    2 1   
     2    1    4 1   
     3    1    5 1   
     4    3    6 1   
@<TRIPOS>SUBSTRUCTURE
     1 TS6         1 TEMP              0 ****  ****    0 ROOT
