@<TRIPOS>MOLECULE
molecule
    6     5     1     0     0
SMALL
bcc


@<TRIPOS>ATOM
      1 P            0.0000     0.0000     0.0000 p5         1 TS6       0.977900
      2 O1P          1.4810     0.0000     0.0000 o          1 TS6      -0.840500
      3 S2P         -0.7060     0.0000     1.9990 sh         1 TS6      -0.728200
      4 O3P         -0.5370     1.3140    -0.7590 o          1 TS6      -0.840500
      5 O4P         -0.5360    -1.3150    -0.7580 o          1 TS6      -0.840500
      6 HS2P        -2.0330     0.0000     2.0000 hs         1 TS6       0.270800
@<TRIPOS>BOND
     1     2     1 1
     2     3     1 1
     3     1     4 1
     4     1     5 1
     5     3     6 1
@<TRIPOS>SUBSTRUCTURE
     1 TS6         1 TEMP              0 ****  ****    0 ROOT
