@<TRIPOS>MOLECULE
TS8
   44    44     1     0     0
SMALL
bcc


@<TRIPOS>ATOM
      1 S          -0.0550   -0.3700   -0.4020 sh        1 TS8     -0.333900
      2 C1          1.7060   -0.2590   -0.1750 c3        1 TS8      0.220200
      3 C2          2.1560   -0.0960    1.2840 c3        1 TS8      0.111100
      4 O2          1.7850    1.2250    1.6970 os        1 TS8     -0.435900
      5 C3          3.6920   -0.1640    1.3860 c3        1 TS8      0.127100
      6 O3          4.0010   -0.3760    2.7710 os        1 TS8     -0.437900
      7 C4          4.2610   -1.3760    0.6260 c3        1 TS8      0.109100
      8 O4          5.6620   -1.0980    0.4700 os        1 TS8     -0.438900
      9 C5          3.6510   -1.4980   -0.7800 c3        1 TS8      0.105100
     10 O5          2.2260   -1.4670   -0.7050 os        1 TS8     -0.400600
     11 C6          3.9980   -2.8530   -1.4090 c3        1 TS8      0.132400
     12 O6          4.1280   -2.6550   -2.8180 os        1 TS8     -0.446900
     13 CAD         3.5240   -3.0070   -5.0890 c3        1 TS8     -0.150100
     14 CAE         7.9770   -1.6060    0.6230 c3        1 TS8     -0.150100
     15 CAF         0.5350    2.7980    2.9580 c3        1 TS8     -0.150100
     16 CAG         4.7530    0.5540    3.4400 c         1 TS8      0.640100
     17 OAH         2.6170   -4.2710   -3.1920 o         1 TS8     -0.533000
     18 OAI         6.1630   -3.1950    1.0870 o         1 TS8     -0.539000
     19 OAJ         0.5300    0.3750    3.3560 o         1 TS8     -0.530000
     20 OAK         5.1610    1.5470    2.8370 o         1 TS8     -0.535000
     21 CAW         3.3430   -3.3960   -3.6630 c         1 TS8      0.640100
     22 CAX         6.5720   -2.0790    0.7640 c         1 TS8      0.640100
     23 CAY         0.9010    1.3720    2.7380 c         1 TS8      0.645100
     24 CAZ         4.9610    0.1810    4.8680 c3        1 TS8     -0.150100
     25 HS         -0.2380   -1.6370   -0.0580 hs        1 TS8      0.228800
     26 H1          2.0390    0.6290   -0.7770 h2        1 TS8      0.091700
     27 H2          1.6890   -0.8790    1.9420 h1        1 TS8      0.113700
     28 H3          4.1540    0.7910    1.0100 h1        1 TS8      0.113700
     29 H4          4.0980   -2.3180    1.2180 h1        1 TS8      0.109700
     30 H5          4.0170   -0.6550   -1.4300 h1        1 TS8      0.077700
     31 H6          5.0080   -3.1930   -1.0520 h1        1 TS8      0.088200
     32 H6A         3.2150   -3.6180   -1.1640 h1        1 TS8      0.088200
     33 HAD         3.6420   -3.9310   -5.7070 hc        1 TS8      0.077033
     34 HADA        4.4200   -2.3530   -5.2160 hc        1 TS8      0.077033
     35 HADB        2.6130   -2.4540   -5.4260 hc        1 TS8      0.077033
     36 HAE         8.4470   -2.1320   -0.2440 hc        1 TS8      0.080367
     37 HAEA        8.0130   -0.5030    0.4510 hc        1 TS8      0.080367
     38 HAEB        8.5390   -1.8600    1.5540 hc        1 TS8      0.080367
     39 HAF        -0.4200    3.0080    2.4140 hc        1 TS8      0.079700
     40 HAFA        0.3840    2.9740    4.0510 hc        1 TS8      0.079700
     41 HAFB        1.3310    3.4780    2.5700 hc        1 TS8      0.079700
     42 HAZ         6.0580    0.1480    5.0770 hc        1 TS8      0.079033
     43 HAZA        4.4870    0.9610    5.5140 hc        1 TS8      0.079033
     44 HAZB        4.5060   -0.8140    5.0930 hc        1 TS8      0.079033
@<TRIPOS>BOND
     1    1    2 1   
     2    1   25 1   
     3    2    3 1   
     4    2   10 1   
     5    2   26 1   
     6    3    4 1   
     7    3    5 1   
     8    3   27 1   
     9    4   23 1   
    10    5    6 1   
    11    5    7 1   
    12    5   28 1   
    13    6   16 1   
    14    7    8 1   
    15    7    9 1   
    16    7   29 1   
    17    8   22 1   
    18    9   10 1   
    19    9   11 1   
    20    9   30 1   
    21   11   12 1   
    22   11   31 1   
    23   11   32 1   
    24   12   21 1   
    25   13   21 1   
    26   13   33 1   
    27   13   34 1   
    28   13   35 1   
    29   14   22 1   
    30   14   36 1   
    31   14   37 1   
    32   14   38 1   
    33   15   23 1   
    34   15   39 1   
    35   15   40 1   
    36   15   41 1   
    37   16   20 2   
    38   16   24 1   
    39   17   21 2   
    40   18   22 2   
    41   19   23 2   
    42   24   42 1   
    43   24   43 1   
    44   24   44 1   
@<TRIPOS>SUBSTRUCTURE
     1 TS8         1 TEMP              0 ****  ****    0 ROOT
