@<TRIPOS>MOLECULE
molecule
   44    44     1     0     0
SMALL
bcc


@<TRIPOS>ATOM
      1 S            0.0000     0.0000     0.0000 sh         1 TS8      -0.306900
      2 C1           1.8140     0.0000     0.0000 c3         1 TS8       0.229200
      3 C2           2.3240     0.0000     1.4440 c3         1 TS8       0.120100
      4 O2           1.8900     1.2140     2.1110 os         1 TS8      -0.405900
      5 C3           3.8550    -0.0610     1.4370 c3         1 TS8       0.157100
      6 O3           4.3440    -0.1340     2.8010 os         1 TS8      -0.415900
      7 C4           4.3010    -1.3050     0.6630 c3         1 TS8       0.123100
      8 O4           5.7500    -1.3340     0.5860 os         1 TS8      -0.419900
      9 C5           3.7150    -1.2540    -0.7510 c3         1 TS8       0.119100
     10 O5           2.2910    -1.1680    -0.6720 os         1 TS8      -0.384600
     11 C6           4.1070    -2.5230    -1.5110 c3         1 TS8       0.160400
     12 O6           3.6530    -2.4230    -2.8870 os         1 TS8      -0.428900
     13 CAD          3.4790    -3.4290    -5.1350 c3         1 TS8      -0.138100
     14 CAE          7.8350    -2.6510     0.4470 c3         1 TS8      -0.137100
     15 CAF          0.1920     2.3930     3.4610 c3         1 TS8      -0.133100
     16 CAG          4.5980     1.0290     3.4210 c          1 TS8       0.630100
     17 OAH          4.5130    -4.4220    -3.2660 o          1 TS8      -0.545000
     18 OAI          5.6560    -3.5410     0.5420 o          1 TS8      -0.539000
     19 OAJ          0.0560     0.1530     2.7420 o          1 TS8      -0.526000
     20 OAK          4.4160     2.0740     2.8430 o          1 TS8      -0.533000
     21 CAW          3.9190    -3.4610    -3.6940 c          1 TS8       0.630100
     22 CAX          6.3340    -2.5410     0.5280 c          1 TS8       0.628100
     23 CAY          0.7070     1.1720     2.7450 c          1 TS8       0.628100
     24 CAZ          5.1090     1.0320     4.8390 c3         1 TS8      -0.137100
     25 HS          -0.4430     0.4180    -1.1800 hs         1 TS8       0.197800
     26 H1           2.1800     0.8830    -0.5100 h2         1 TS8       0.062700
     27 H2           1.9320    -0.8650     1.9640 h1         1 TS8       0.105700
     28 H3           4.2480     0.8240     0.9530 h1         1 TS8       0.093700
     29 H4           3.9430    -2.1930     1.1700 h1         1 TS8       0.102700
     30 H5           4.1000    -0.3840    -1.2690 h1         1 TS8       0.059700
     31 H6           5.1840    -2.6360    -1.4940 h1         1 TS8       0.073200
     32 H6A          3.6460    -3.3830    -1.0410 h1         1 TS8       0.073200
     33 HAD          3.3190    -4.4410    -5.4860 hc         1 TS8       0.069700
     34 HADA         2.5560    -2.8670    -5.2170 hc         1 TS8       0.069700
     35 HADB         4.2450    -2.9540    -5.7360 hc         1 TS8       0.069700
     36 HAE          8.2260    -1.8310    -0.1430 hc         1 TS8       0.073700
     37 HAEA         8.1040    -3.5910    -0.0190 hc         1 TS8       0.073700
     38 HAEB         8.2540    -2.6100     1.4450 hc         1 TS8       0.073700
     39 HAF          0.6030     2.4260     4.4620 hc         1 TS8       0.071033
     40 HAFA         0.4910     3.2820     2.9190 hc         1 TS8       0.071033
     41 HAFB        -0.8890     2.3500     3.5150 hc         1 TS8       0.071033
     42 HAZ          6.1850     0.9070     4.8350 hc         1 TS8       0.070700
     43 HAZA         4.6530     0.2170     5.3880 hc         1 TS8       0.070700
     44 HAZB         4.8560     1.9720     5.3120 hc         1 TS8       0.070700
@<TRIPOS>BOND
     1     1     2 1
     2     1    25 1
     3    10     2 1
     4     2     3 1
     5     2    26 1
     6     5     3 1
     7     3     4 1
     8     3    27 1
     9     4    23 1
    10     6     5 1
    11     7     5 1
    12     5    28 1
    13    16     6 1
    14     9     7 1
    15     7     8 1
    16     7    29 1
    17     8    22 1
    18    11     9 1
    19    10     9 1
    20     9    30 1
    21    12    11 1
    22    11    31 1
    23    11    32 1
    24    21    12 1
    25    13    21 1
    26    13    33 1
    27    13    34 1
    28    13    35 1
    29    22    14 1
    30    14    36 1
    31    14    37 1
    32    14    38 1
    33    23    15 1
    34    15    39 1
    35    15    40 1
    36    15    41 1
    37    24    16 1
    38    16    20 2
    39    17    21 2
    40    18    22 2
    41    23    19 2
    42    24    42 1
    43    24    43 1
    44    24    44 1
@<TRIPOS>SUBSTRUCTURE
     1 TS8         1 TEMP              0 ****  ****    0 ROOT
