@<TRIPOS>MOLECULE
TSA
   26    27     1     0     0
SMALL
bcc


@<TRIPOS>ATOM
      1 C1          0.0960    0.1210    0.0060 c3        1 TSA     -0.139800
      2 C2          1.5410    0.4990   -0.0270 c2        1 TSA     -0.076200
      3 C3          2.2700    0.5980    1.0900 c2        1 TSA     -0.259200
      4 C4          1.7480    0.2040    2.4320 c3        1 TSA      0.124300
      5 O5          2.0230    1.2100    3.4180 oh        1 TSA     -0.633800
      6 C5          0.2240   -0.0370    2.4650 c3        1 TSA      0.163100
      7 C6         -0.4970    0.6440    1.3120 c3        1 TSA     -0.080400
      8 O7         -0.0690   -1.4260    2.4850 os        1 TSA     -0.425600
      9 C8          0.1370   -2.1600    1.2740 c3        1 TSA      0.034100
     10 C9         -0.0700   -1.3990   -0.0350 c3        1 TSA     -0.062400
     11 C10        -0.6710    0.7500   -1.1960 c         1 TSA      0.921600
     12 O1         -1.9360    0.7580   -1.1590 o         1 TSA     -0.859800
     13 O2         -0.0140    1.2400   -2.1620 o         1 TSA     -0.859800
     14 C11         1.4520   -2.9780    1.3020 c         1 TSA      0.900600
     15 O3          2.3120   -2.8060    2.2140 o         1 TSA     -0.859800
     16 O4          1.5830   -3.8670    0.4060 o         1 TSA     -0.859800
     17 H2          1.9460    0.7170   -1.0280 ha        1 TSA      0.138000
     18 H3          3.3260    0.9020    1.0690 ha        1 TSA      0.082000
     19 H4          2.2540   -0.7630    2.7480 h1        1 TSA      0.120700
     20 HO5         2.9450    1.4560    3.2940 ho        1 TSA      0.372000
     21 H5         -0.1750    0.3240    3.4560 h1        1 TSA      0.040700
     22 H61        -0.3700    1.7520    1.3800 hc        1 TSA      0.044200
     23 H62        -1.5900    0.4080    1.3390 hc        1 TSA      0.044200
     24 H8         -0.6880   -2.9370    1.3440 h1        1 TSA      0.027700
     25 H91         0.6350   -1.8280   -0.7950 hc        1 TSA      0.051200
     26 H92        -1.1160   -1.5980   -0.3930 hc        1 TSA      0.051200
@<TRIPOS>BOND
     1    1    2 1   
     2    1    7 1   
     3    1   10 1   
     4    1   11 1   
     5    2    3 2   
     6    2   17 1   
     7    3    4 1   
     8    3   18 1   
     9    4    5 1   
    10    4    6 1   
    11    4   19 1   
    12    5   20 1   
    13    6    7 1   
    14    6    8 1   
    15    6   21 1   
    16    7   22 1   
    17    7   23 1   
    18    8    9 1   
    19    9   10 1   
    20    9   14 1   
    21    9   24 1   
    22   10   25 1   
    23   10   26 1   
    24   11   12 1   
    25   11   13 1   
    26   14   15 1   
    27   14   16 1   
@<TRIPOS>SUBSTRUCTURE
     1 TSA         1 TEMP              0 ****  ****    0 ROOT
