@<TRIPOS>MOLECULE
molecule
   26    27     1     0     0
SMALL
bcc


@<TRIPOS>ATOM
      1 C1           0.0000     0.0000     0.0000 c3         1 TSA      -0.125800
      2 C2           1.5080     0.0000     0.0000 c2         1 TSA       0.011800
      3 C3           2.2100     0.0000     1.0860 c2         1 TSA      -0.307200
      4 C4           1.6430     0.0320     2.4730 c3         1 TSA       0.126300
      5 O5           1.9520     1.2900     3.0740 oh         1 TSA      -0.650800
      6 C5           0.1330    -0.1560     2.4650 c3         1 TSA       0.132100
      7 C6          -0.4840     0.6340     1.3150 c3         1 TSA      -0.076400
      8 O7          -0.2310    -1.5200     2.4250 os         1 TSA      -0.428600
      9 C8           0.2500    -2.1200     1.2300 c3         1 TSA       0.027100
     10 C9          -0.4480    -1.4750     0.0270 c3         1 TSA      -0.059400
     11 C10         -0.5480     0.7350    -1.1950 c          1 TSA       0.914600
     12 O1          -1.2530     1.7030    -1.0380 o          1 TSA      -0.874300
     13 O2          -0.2500     0.3170    -2.4350 o          1 TSA      -0.874300
     14 C11          1.7440    -1.9350     1.1450 c          1 TSA       0.906600
     15 O3           2.4080    -1.9220     2.1530 o          1 TSA      -0.831300
     16 O4           2.3330    -1.7880    -0.0520 o          1 TSA      -0.831300
     17 H2           2.0260     0.0030    -0.9510 ha         1 TSA       0.137000
     18 H3           3.2880    -0.0230     0.9860 ha         1 TSA       0.110000
     19 H4           2.0930    -0.7630     3.0550 h1         1 TSA       0.127700
     20 HO5          2.5390     1.1560     3.8000 ho         1 TSA       0.357000
     21 H5          -0.2520     0.2580     3.3890 h1         1 TSA       0.020700
     22 H61         -1.5640     0.5830     1.3720 hc         1 TSA       0.038700
     23 H62         -0.1620     1.6680     1.3650 hc         1 TSA       0.038700
     24 H8           0.0190    -3.1780     1.2470 h1         1 TSA       0.033700
     25 H91         -0.1440    -1.9710    -0.8870 hc         1 TSA       0.039200
     26 H92         -1.5230    -1.5340     0.1480 hc         1 TSA       0.039200
@<TRIPOS>BOND
     1     1     2 1
     2     1     7 1
     3     1    10 1
     4     1    11 1
     5     2     3 2
     6     2    17 1
     7     3     4 1
     8     3    18 1
     9     4     5 1
    10     4     6 1
    11     4    19 1
    12     5    20 1
    13     6     7 1
    14     6     8 1
    15     6    21 1
    16     7    22 1
    17     7    23 1
    18     8     9 1
    19     9    10 1
    20     9    14 1
    21     9    24 1
    22    10    25 1
    23    10    26 1
    24    11    12 1
    25    11    13 1
    26    14    15 1
    27    14    16 1
@<TRIPOS>SUBSTRUCTURE
     1 TSA         1 TEMP              0 ****  ****    0 ROOT
