@<TRIPOS>MOLECULE
TSB
   51    49     1     0     0
SMALL
bcc


@<TRIPOS>ATOM
      1 CG2         2.1620   -0.1090   -0.0760 c1        1 TSB     -0.095000
      2 N           1.1300   -3.4570   -2.4370 n3        1 TSB     -0.382000
      3 CA          1.2910   -2.8580   -1.1430 c3        1 TSB     -0.093000
      4 CB          1.1840    0.0420    0.9940 c3        1 TSB     -0.096000
      5 OG1        -0.0720   -0.4820    0.5740 oh        1 TSB     -0.324000
      6 S1          5.0490   -1.3800   -1.7800 s6        1 TSB      2.654000
      7 O1S         5.5560   -1.2030   -3.0760 o         1 TSB     -0.909500
      8 O2S         5.1660   -0.3600   -0.8470 o         1 TSB     -0.909500
      9 O5'         6.1280   -2.6150   -1.1790 os        1 TSB     -0.521000
     10 C5'         6.8320   -3.5770   -1.6370 c1        1 TSB      0.213000
     11 C4'         6.7590   -3.9680   -3.1030 c3        1 TSB     -0.152000
     12 O4'         7.2150   -5.3220   -3.1720 os        1 TSB     -0.243000
     13 C3'         7.7260   -3.0880   -3.9190 c3        1 TSB     -0.034000
     14 O3'         8.2710   -3.8230   -4.9960 oh        1 TSB     -0.333000
     15 C2'         6.4430   -5.3510   -5.4710 c1        1 TSB      0.015000
     16 O2'         7.3860   -5.7180   -6.3070 oh        1 TSB     -0.212000
     17 C1'         6.5800   -6.1530   -4.1540 c3        1 TSB      0.068000
     18 N9          5.2960   -6.6690   -3.7640 na        1 TSB     -0.263000
     19 C8          4.0820   -5.9490   -3.8790 c2        1 TSB      0.021000
     20 N7          3.1040   -6.3860   -3.1070 n2        1 TSB     -0.189000
     21 C5          3.6480   -7.4560   -2.3250 c2        1 TSB     -0.207000
     22 C6          2.9110   -8.1780   -1.4080 c2        1 TSB      0.243000
     23 N6          1.5820   -7.8540   -1.0970 n3        1 TSB     -0.330000
     24 N1          3.4920   -9.2260   -0.7050 n2        1 TSB     -0.332000
     25 C2          3.9840  -10.1100   -0.0870 c1        1 TSB      0.192000
     26 N3          6.0410   -8.4240   -2.2980 n2        1 TSB     -0.264000
     27 C4          5.1070   -7.6350   -2.6960 c2        1 TSB      0.139000
     28 HG21        1.5470   -0.5250    1.9040 h1        1 TSB      0.107500
     29 HG22        3.1490    0.3320    0.1380 ha        1 TSB      0.092000
     30 HG23        1.0600    1.1300    1.2710 h1        1 TSB      0.107500
     31 HN11        0.2120   -3.3060   -2.7970 hn        1 TSB      0.171000
     32 HN12        1.3510   -4.4310   -2.4330 hn        1 TSB      0.171000
     33 HA          0.6540   -1.9220   -1.0540 h1        1 TSB      0.131500
     34 HB          1.0140   -3.5490   -0.2930 h1        1 TSB      0.131500
     35 HG1        -0.6660   -0.3990    1.3290 ho        1 TSB      0.197000
     36 HN8         3.2360   -2.3110   -2.7820 hn        1 TSB      0.281000
     37 H5'1        4.5500   -2.4350   -4.9310 ha        1 TSB      0.002000
     38 H5'2        4.0130   -2.8430   -4.8640 ha        1 TSB      0.002000
     39 H4'         5.7170   -3.8750   -3.5250 h1        1 TSB      0.103000
     40 H3'         8.5480   -2.6960   -3.2640 h1        1 TSB      0.117000
     41 HO3'        8.8260   -4.5200   -4.6190 ho        1 TSB      0.217000
     42 H2'         7.1650   -2.2360   -4.3920 h1        1 TSB      0.117000
     43 HO2'        7.3410   -5.1330   -7.0870 ho        1 TSB      0.272000
     44 H1'         7.3060   -7.0270   -4.2140 h2        1 TSB      0.160000
     45 H8          4.0020   -5.1270   -4.6120 h5        1 TSB      0.217000
     46 HN61        1.0120   -8.5920   -0.7470 hn        1 TSB      0.213000
     47 HN62        1.1310   -7.2720   -1.7680 hn        1 TSB      0.213000
     48 H2          5.8040   -9.0710   -1.5810 hn        1 TSB      0.168000
     49 C           2.7120   -2.3800   -0.8310 c2        1 TSB      0.387000
     50 O           3.1000   -2.2660    0.3510 o         1 TSB     -0.375000
     51 N8          3.6050   -2.0980   -1.8720 n         1 TSB     -0.858000
@<TRIPOS>BOND
     1    1    4 1   
     2    1   29 1   
     3    2    3 1   
     4    2   31 1   
     5    2   32 1   
     6    3   33 1   
     7    3   34 1   
     8    3   49 1   
     9    4    5 1   
    10    4   28 1   
    11    4   30 1   
    12    5   35 1   
    13    6    7 1   
    14    6    8 1   
    15    6    9 1   
    16    6   51 1   
    17    9   10 1   
    18   10   11 1   
    19   11   12 1   
    20   11   13 1   
    21   11   39 1   
    22   12   17 1   
    23   13   14 1   
    24   13   40 1   
    25   13   42 1   
    26   14   41 1   
    27   15   16 1   
    28   15   17 1   
    29   16   43 1   
    30   17   18 1   
    31   17   44 1   
    32   18   19 1   
    33   18   27 1   
    34   19   20 1   
    35   19   45 1   
    36   20   21 1   
    37   21   22 1   
    38   21   27 1   
    39   22   23 1   
    40   22   24 1   
    41   23   46 1   
    42   23   47 1   
    43   24   25 1   
    44   26   27 1   
    45   26   48 1   
    46   36   51 1   
    47   37   38 1   
    48   49   50 1   
    49   49   51 1   
@<TRIPOS>SUBSTRUCTURE
     1 TSB         1 TEMP              0 ****  ****    0 ROOT
