@<TRIPOS>MOLECULE
molecule
   26    27     1     0     0
SMALL
bcc


@<TRIPOS>ATOM
      1 O1           0.0000     0.0000     0.0000 oh         1 TSC      -0.533800
      2 CA           1.4290     0.0000     0.0000 c3         1 TSC       0.311300
      3 N            1.9190     0.0000     1.3850 nz         1 TSC      -0.852600
      4 CB           1.9400     1.2490    -0.7220 c3         1 TSC       0.001800
      5 CG           1.5400     1.1880    -2.1740 cc         1 TSC      -0.213400
      6 CD1          2.2900     0.7310    -3.1890 cd         1 TSC      -0.061100
      7 NE1          1.5950     0.8320    -4.3640 na         1 TSC      -0.161400
      8 CE2          0.3500     1.3710    -4.1270 ca         1 TSC      -0.037200
      9 CD2          0.2590     1.6130    -2.7430 ca         1 TSC      -0.089800
     10 CZ2         -0.7310     1.6820    -4.9460 ca         1 TSC      -0.129000
     11 CH2         -1.8710     2.2260    -4.3960 ca         1 TSC      -0.094000
     12 CZ3         -1.9530     2.4680    -3.0320 ca         1 TSC      -0.134000
     13 CE3         -0.9040     2.1710    -2.2090 ca         1 TSC      -0.088000
     14 HO1         -0.3140    -0.8660     0.2010 ho         1 TSC       0.429000
     15 HA           1.7900    -0.8850    -0.5100 hx         1 TSC       0.104700
     16 HN1          1.6120    -0.8330     1.8470 hn         1 TSC       0.456133
     17 HN2          2.9190     0.0320     1.3850 hn         1 TSC       0.456133
     18 HB1          3.0190     1.2950    -0.6460 hc         1 TSC       0.072700
     19 HB2          1.5080     2.1320    -0.2650 hc         1 TSC       0.072700
     20 HD1          3.2950     0.3400    -3.0930 h4         1 TSC       0.165000
     21 HE1          1.9400     0.5550    -5.2620 hn         1 TSC       0.313700
     22 HZ2         -0.6760     1.4970    -6.0120 ha         1 TSC       0.141000
     23 HH2         -2.7120     2.4670    -5.0360 ha         1 TSC       0.147000
     24 HZ3         -2.8570     2.8960    -2.6160 ha         1 TSC       0.141000
     25 HE3         -0.9760     2.3630    -1.1460 ha         1 TSC       0.126000
     26 HN3          1.5520     0.7960     1.8680 hn         1 TSC       0.456133
@<TRIPOS>BOND
     1     1     2 1
     2     1    14 1
     3     2     3 1
     4     2     4 1
     5     2    15 1
     6     3    16 1
     7     3    17 1
     8     4     5 1
     9     4    18 1
    10     4    19 1
    11     5     6 2
    12     5     9 1
    13     6     7 1
    14     6    20 1
    15     7     8 1
    16     7    21 1
    17     8     9 ar
    18     8    10 ar
    19     9    13 ar
    20    10    11 ar
    21    10    22 1
    22    11    12 ar
    23    11    23 1
    24    12    13 ar
    25    12    24 1
    26    13    25 1
    27    26     3 1
@<TRIPOS>SUBSTRUCTURE
     1 TSC         1 TEMP              0 ****  ****    0 ROOT
