@<TRIPOS>MOLECULE
TSD
   22    21     1     0     0
SMALL
bcc


@<TRIPOS>ATOM
      1 C1         -0.0300    0.1770   -0.1090 c         1 TSD      0.910600
      2 O12         1.1410   -0.2730   -0.2690 o         1 TSD     -0.852300
      3 O13        -0.4040    0.8230    0.9120 o         1 TSD     -0.852300
      4 C2         -1.0660   -0.0450   -1.2300 c3        1 TSD     -0.183400
      5 C3         -1.0300   -1.4480   -1.7650 c3        1 TSD     -0.247400
      6 SI4        -1.7650   -1.5170   -3.4300 Si        1 TSD      0.591000
      7 C4         -0.7060   -0.6820   -4.6760 c3        1 TSD     -0.286767
      8 C5         -1.9650   -3.2720   -3.9590 c3        1 TSD     -0.286767
      9 C6         -3.4330   -0.7430   -3.4730 c3        1 TSD     -0.286767
     10 D31         0.0430   -1.7800   -1.7840 hc        1 TSD      0.062200
     11 D32        -1.5530   -2.1320   -1.0540 hc        1 TSD      0.062200
     12 D21        -0.8290    0.6870   -2.0460 hc        1 TSD      0.016700
     13 D22        -2.0820    0.2060   -0.8300 hc        1 TSD      0.016700
     14 H41        -1.2920   -0.3550   -5.5640 hc        1 TSD      0.037367
     15 H42         0.1040   -1.3570   -5.0360 hc        1 TSD      0.037367
     16 H43        -0.2160    0.2210   -4.2420 hc        1 TSD      0.037367
     17 H51        -2.4490   -3.3460   -4.9590 hc        1 TSD      0.037367
     18 H52        -2.5940   -3.8400   -3.2370 hc        1 TSD      0.037367
     19 H53        -0.9790   -3.7860   -4.0220 hc        1 TSD      0.037367
     20 H61        -3.7150   -0.4320   -4.5040 hc        1 TSD      0.037367
     21 H62        -3.4630    0.1640   -2.8250 hc        1 TSD      0.037367
     22 H63        -4.2160   -1.4430   -3.1060 hc        1 TSD      0.037367
@<TRIPOS>BOND
     1    1    2 1   
     2    1    3 1   
     3    1    4 1   
     4    4    5 1   
     5    4   12 1   
     6    4   13 1   
     7    5    6 1   
     8    5   10 1   
     9    5   11 1   
    10    6    7 1   
    11    6    8 1   
    12    6    9 1   
    13    7   14 1   
    14    7   15 1   
    15    7   16 1   
    16    8   17 1   
    17    8   18 1   
    18    8   19 1   
    19    9   20 1   
    20    9   21 1   
    21    9   22 1   
@<TRIPOS>SUBSTRUCTURE
     1 TSD         1 TEMP              0 ****  ****    0 ROOT
