@<TRIPOS>MOLECULE
molecule
   22    21     1     0     0
SMALL
bcc


@<TRIPOS>ATOM
      1 C1           0.0000     0.0000     0.0000 c          1 TSD       0.912600
      2 O12          1.2480     0.0000     0.0000 o          1 TSD      -0.852300
      3 O13         -0.6550     0.0000     1.0630 o          1 TSD      -0.852300
      4 C2          -0.7460     0.0180    -1.3360 c3         1 TSD      -0.167400
      5 C3          -1.0630    -1.4160    -1.8700 c3         1 TSD      -0.250400
      6 Si4         -1.8560    -1.5060    -3.5020 Si         1 TSD       0.609000
      7 C4          -0.7920    -0.6990    -4.7110 c3         1 TSD      -0.303433
      8 C5          -2.0830    -3.2390    -3.9360 c3         1 TSD      -0.303433
      9 C6          -3.4510    -0.6710    -3.4230 c3         1 TSD      -0.303433
     10 H31         -1.7150    -1.9080    -1.1500 hc         1 TSD       0.048700
     11 H32         -0.1290    -1.9720    -1.9180 hc         1 TSD       0.048700
     12 H21         -0.1370     0.5400    -2.0710 hc         1 TSD       0.015200
     13 H22         -1.6820     0.5590    -1.2070 hc         1 TSD       0.015200
     14 H41         -0.7960     0.3710    -4.5380 hc         1 TSD       0.042367
     15 H42         -1.1590    -0.9050    -5.7090 hc         1 TSD       0.042367
     16 H43          0.2180    -1.0760    -4.6120 hc         1 TSD       0.042367
     17 H51         -2.7070    -3.7190    -3.1910 hc         1 TSD       0.042367
     18 H52         -2.5610    -3.3080    -4.9060 hc         1 TSD       0.042367
     19 H53         -1.1190    -3.7320    -3.9720 hc         1 TSD       0.042367
     20 H61         -3.2960     0.3920    -3.2800 hc         1 TSD       0.042367
     21 H62         -4.0250    -1.0670    -2.5940 hc         1 TSD       0.042367
     22 H63         -3.9910    -0.8360    -4.3470 hc         1 TSD       0.042367
@<TRIPOS>BOND
     1     1     2 1
     2     1     3 1
     3     1     4 1
     4     4     5 1
     5     4    12 1
     6     4    13 1
     7     5     6 1
     8     5    10 1
     9     5    11 1
    10     6     7 1
    11     6     8 1
    12     6     9 1
    13     7    14 1
    14     7    15 1
    15     7    16 1
    16     8    17 1
    17     8    18 1
    18     8    19 1
    19     9    20 1
    20     9    21 1
    21     9    22 1
@<TRIPOS>SUBSTRUCTURE
     1 TSD         1 TEMP              0 ****  ****    0 ROOT
