@<TRIPOS>MOLECULE
molecule
   12    11     1     0     0
SMALL
bcc


@<TRIPOS>ATOM
      1 C3P          0.0000     0.0000     0.0000 c          1 TSE       0.913600
      2 O4P          1.3560     0.0000     0.0000 o          1 TSE      -0.818300
      3 O5P         -0.6720     0.0000     1.0230 o          1 TSE      -0.818300
      4 P           -2.3780    -0.0930    -1.4390 p5         1 TSE       0.891000
      5 S1P         -3.2320    -1.6960    -0.7810 s          1 TSE      -0.615000
      6 C2P         -0.5780    -0.0440    -1.3830 c3         1 TSE      -0.293600
      7 O3P         -2.7550     1.2880    -0.6820 oh         1 TSE      -0.659900
      8 O2P         -2.6550     0.2880    -2.9890 oh         1 TSE      -0.659900
      9 H2P1        -0.2430     0.8340    -1.9220 hc         1 TSE       0.089700
     10 H2P2        -0.1950    -0.9230    -1.8860 hc         1 TSE       0.089700
     11 HOP3        -3.6830     1.3130    -0.5180 ho         1 TSE       0.440500
     12 HOP2        -3.3620    -0.2410    -3.3210 ho         1 TSE       0.440500
@<TRIPOS>BOND
     1     1     2 1
     2     1     3 1
     3     1     6 1
     4     4     5 2
     5     4     6 1
     6     4     7 1
     7     4     8 1
     8     6     9 1
     9     6    10 1
    10     7    11 1
    11     8    12 1
@<TRIPOS>SUBSTRUCTURE
     1 TSE         1 TEMP              0 ****  ****    0 ROOT
