@<TRIPOS>MOLECULE
TSF
   53    54     1     0     0
SMALL
bcc


@<TRIPOS>ATOM
      1 O2P         2.0350    0.2230    1.9100 o         1 TSF     -0.930167
      2 P           3.3500   -0.2350    1.3490 p5        1 TSF      1.183700
      3 O3P         4.2050   -1.0810    2.2620 o         1 TSF     -0.930167
      4 O1P         4.1290    0.7840    0.5550 o         1 TSF     -0.930167
      5 C19         2.9360   -1.4670    0.0210 c3        1 TSF      0.260400
      6 F1          2.1850   -2.5090    0.5060 f         1 TSF     -0.289800
      7 F2          2.1220   -0.9260   -0.9440 f         1 TSF     -0.289800
      8 C18         4.3160   -1.8740   -0.4830 c3        1 TSF     -0.157400
      9 C17         4.3280   -2.9160   -1.5750 c3        1 TSF     -0.065400
     10 C16         5.7500   -3.2890   -1.9390 c3        1 TSF     -0.104400
     11 C15         5.7730   -4.4150   -2.9670 c3        1 TSF      0.046000
     12 N5          7.0890   -4.9440   -3.3080 n         1 TSF     -0.239000
     13 C9          7.9610   -4.1660   -4.1290 cc        1 TSF     -0.239600
     14 C4          7.6620   -3.4820   -5.3770 c         1 TSF      0.760700
     15 O2          6.5660   -3.4170   -5.9540 o         1 TSF     -0.601500
     16 N3          8.7810   -2.8580   -5.9800 n         1 TSF     -0.588500
     17 C6          7.9200   -5.3950   -2.2110 c         1 TSF      0.760500
     18 O4          7.6170   -6.1570   -1.2850 o         1 TSF     -0.587500
     19 N7          9.3080   -4.9950   -2.4550 n         1 TSF     -0.368000
     20 C8          9.2750   -4.1990   -3.6200 cd        1 TSF      0.152200
     21 N1         10.3330   -3.5680   -4.2500 n         1 TSF     -0.445100
     22 C2         10.0830   -2.8920   -5.4640 c         1 TSF      0.817500
     23 O1         11.0360   -2.3460   -6.0670 o         1 TSF     -0.665500
     24 C10        10.2520   -4.8140   -1.3900 c3        1 TSF      0.087000
     25 C11        11.5140   -5.6880   -1.5480 c3        1 TSF      0.110100
     26 O19        12.2860   -5.1220   -2.5980 oh        1 TSF     -0.624800
     27 C12        12.3320   -5.6660   -0.2420 c3        1 TSF      0.114100
     28 O21        13.1230   -4.5020   -0.1360 oh        1 TSF     -0.585800
     29 C13        13.2330   -6.9100   -0.1210 c3        1 TSF      0.107100
     30 O23        13.7860   -7.1710   -1.4030 oh        1 TSF     -0.627800
     31 C14        12.4300   -8.1110    0.3860 c3        1 TSF      0.089400
     32 O26        13.3250   -9.2150    0.3880 oh        1 TSF     -0.619800
     33 H181        4.8650   -2.2310    0.4330 hc        1 TSF      0.098700
     34 H182        4.8010   -0.9160   -0.8170 hc        1 TSF      0.098700
     35 H171        3.7920   -2.5230   -2.4780 hc        1 TSF      0.027700
     36 H172        3.7730   -3.8260   -1.2240 hc        1 TSF      0.027700
     37 H161        6.2770   -2.3860   -2.3440 hc        1 TSF      0.045700
     38 H162        6.2910   -3.6130   -1.0100 hc        1 TSF      0.045700
     39 H151        5.3070   -4.0640   -3.9330 h1        1 TSF      0.080200
     40 H152        5.1860   -5.2930   -2.5710 h1        1 TSF      0.080200
     41 H3          8.6420   -2.3210   -6.8090 hn        1 TSF      0.349500
     42 H1         11.2690   -3.6480   -3.9140 hn        1 TSF      0.374500
     43 H101       10.5800   -3.7370   -1.3170 h1        1 TSF      0.088200
     44 H102        9.7420   -5.1070   -0.4260 h1        1 TSF      0.088200
     45 H11        11.2390   -6.7490   -1.7980 h1        1 TSF      0.063700
     46 H19        12.9390   -5.7850   -2.8570 ho        1 TSF      0.428000
     47 H12        11.6490   -5.6290    0.6530 h1        1 TSF      0.094700
     48 H21        13.5490   -4.3580   -0.9940 ho        1 TSF      0.418000
     49 H13        14.0720   -6.6890    0.5990 h1        1 TSF      0.064700
     50 H23        14.2480   -8.0160   -1.3420 ho        1 TSF      0.425000
     51 H141       11.5610   -8.3230   -0.2920 h1        1 TSF      0.046200
     52 H142       12.0570   -7.9150    1.4260 h1        1 TSF      0.046200
     53 H26        12.8100   -9.9880    0.6440 ho        1 TSF      0.410000
@<TRIPOS>BOND
     1    1    2 1   
     2    2    3 1   
     3    2    4 1   
     4    2    5 1   
     5    5    6 1   
     6    5    7 1   
     7    5    8 1   
     8    8    9 1   
     9    8   33 1   
    10    8   34 1   
    11    9   10 1   
    12    9   35 1   
    13    9   36 1   
    14   10   11 1   
    15   10   37 1   
    16   10   38 1   
    17   11   12 1   
    18   11   39 1   
    19   11   40 1   
    20   12   13 1   
    21   12   17 1   
    22   13   14 1   
    23   13   20 2   
    24   14   15 2   
    25   14   16 1   
    26   16   22 1   
    27   16   41 1   
    28   17   18 2   
    29   17   19 1   
    30   19   20 1   
    31   19   24 1   
    32   20   21 1   
    33   21   22 1   
    34   21   42 1   
    35   22   23 2   
    36   24   25 1   
    37   24   43 1   
    38   24   44 1   
    39   25   26 1   
    40   25   27 1   
    41   25   45 1   
    42   26   46 1   
    43   27   28 1   
    44   27   29 1   
    45   27   47 1   
    46   28   48 1   
    47   29   30 1   
    48   29   31 1   
    49   29   49 1   
    50   30   50 1   
    51   31   32 1   
    52   31   51 1   
    53   31   52 1   
    54   32   53 1   
@<TRIPOS>SUBSTRUCTURE
     1 TSF         1 TEMP              0 ****  ****    0 ROOT
