@<TRIPOS>MOLECULE
TSH
   22    23     1     0     0
SMALL
bcc


@<TRIPOS>ATOM
      1 N            0.0000     0.0000     0.0000 n2         1 TSH      -0.658100
      2 CA           1.2800     0.0000     0.0000 c2         1 TSH       0.411200
      3 CB           2.0320     0.0000     1.3060 c3         1 TSH      -0.021500
      4 CG           2.9890    -1.1630     1.3340 cc         1 TSH      -0.152400
      5 CD2          4.3410    -1.1940     0.7710 ca         1 TSH      -0.094800
      6 CE3          5.1350    -0.2610     0.1010 ca         1 TSH      -0.046000
      7 CZ3          6.3940    -0.6060    -0.3020 ca         1 TSH      -0.130000
      8 CH2          6.8950    -1.8740    -0.0440 ca         1 TSH      -0.084000
      9 CZ2          6.1310    -2.8090     0.6220 ca         1 TSH      -0.102000
     10 CE2          4.8460    -2.4790     1.0410 ca         1 TSH      -0.225200
     11 NE1          3.8600    -3.1710     1.7080 na         1 TSH       0.357600
     12 CD1          2.7620    -2.3710     1.8740 cd         1 TSH      -0.260100
     13 HN          -0.5000     0.0000     0.8670 hn         1 TSH       0.310400
     14 HA           1.8220     0.0000    -0.9380 h4         1 TSH      -0.009200
     15 HB1          2.5860     0.9260     1.4040 hc         1 TSH       0.022700
     16 HB2          1.3300    -0.0900     2.1260 hc         1 TSH       0.022700
     17 HE3          4.7510     0.7310    -0.1040 ha         1 TSH       0.101000
     18 HZ3          7.0070     0.1170    -0.8260 ha         1 TSH       0.103000
     19 HH2          7.8950    -2.1330    -0.3690 ha         1 TSH       0.101000
     20 HZ2          6.5300    -3.7960     0.8190 ha         1 TSH       0.099000
     21 HE1          3.9350    -4.1170     2.0260 hn         1 TSH       0.114700
     22 HD1          1.8460    -2.6680     2.3690 h4         1 TSH       0.140000
@<TRIPOS>BOND
     1     1     2 2   
     2     1    13 1   
     3     2     3 1   
     4     2    14 1   
     5     3     4 1   
     6     3    15 1   
     7     3    16 1   
     8     4     5 1   
     9     4    12 2   
    10     5     6 ar  
    11     5    10 ar  
    12     6     7 ar  
    13     6    17 1   
    14     7     8 ar  
    15     7    18 1   
    16     8     9 ar  
    17     8    19 1   
    18     9    10 ar  
    19     9    20 1   
    20    10    11 1   
    21    11    12 1   
    22    11    21 1   
    23    12    22 1   
@<TRIPOS>SUBSTRUCTURE
     1 TSH         1 TEMP              0 ****  ****    0 ROOT
