@<TRIPOS>MOLECULE
TSI
   22    21     1     0     0
SMALL
bcc


@<TRIPOS>ATOM
      1 C2           1.5280     0.0000     0.0000 c3         1 TSI      -0.088200
      2 N1           2.0190    -1.1990     0.6930 nz         1 TSI       0.079400
      3 C3           0.0000     0.0000     0.0000 c3         1 TSI       0.139800
      4 C5          -0.5100     0.0000     1.4430 c3         1 TSI      -0.009100
      5 O4          -0.4760    -1.1670    -0.6730 oh         1 TSI      -0.568800
      6 C6          -0.5110     1.2480    -0.7210 c3         1 TSI       0.174100
      7 C8          -2.0410     1.2480    -0.7210 c3         1 TSI      -0.034100
      8 O7          -0.0350     2.4150    -0.0470 oh         1 TSI      -0.593800
      9 HC1          1.8900    -0.0000    -1.0210 hx         1 TSI       0.093200
     10 HC2          1.8900     0.8850     0.5100 hx         1 TSI       0.093200
     11 HN11         1.9860    -1.0490     1.6820 hn         1 TSI       0.228800
     12 HN12         2.9620    -1.3830     0.4140 hn         1 TSI       0.228800
     13 HC1A        -0.2660    -0.9460     1.9120 hc         1 TSI       0.032700
     14 HC2A        -1.5840     0.1380     1.4460 hc         1 TSI       0.032700
     15 HC3         -0.0400     0.8070     1.9920 hc         1 TSI       0.032700
     16 HO4         -0.1660    -1.1650    -1.5630 ho         1 TSI       0.410000
     17 HC6         -0.1500     1.2480    -1.7420 h1         1 TSI       0.006700
     18 H81         -2.4020     0.2300    -0.8030 hc         1 TSI       0.031367
     19 H82         -2.4020     1.6860     0.2010 hc         1 TSI       0.031367
     20 H83         -2.4020     1.8280    -1.5620 hc         1 TSI       0.031367
     21 HO7          0.0170     3.1310    -0.6580 ho         1 TSI       0.420000
     22 H13          1.4290    -1.9770     0.4710 hn         1 TSI       0.228800
@<TRIPOS>BOND
     1     1     2 1   
     2     1     3 1   
     3     1     9 1   
     4     1    10 1   
     5     2    11 1   
     6     2    12 1   
     7     2    22 1   
     8     3     4 1   
     9     3     5 1   
    10     3     6 1   
    11     4    13 1   
    12     4    14 1   
    13     4    15 1   
    14     5    16 1   
    15     6     7 1   
    16     6     8 1   
    17     6    17 1   
    18     7    18 1   
    19     7    19 1   
    20     7    20 1   
    21     8    21 1   
@<TRIPOS>SUBSTRUCTURE
     1 TSI         1 TEMP              0 ****  ****    0 ROOT
