@<TRIPOS>MOLECULE
molecule
   44    46     1     0     0
SMALL
bcc


@<TRIPOS>ATOM
      1 F1           0.0000     0.0000     0.0000 f          1 TSJ      -0.224967
      2 CAV          1.4000     0.0000     0.0000 c3         1 TSJ       0.674200
      3 F2           1.8660     0.0000     1.3190 f          1 TSJ      -0.224967
      4 F3           1.8670    -1.1410    -0.6600 f          1 TSJ      -0.224967
      5 CAH          1.9020     1.2310    -0.7110 ca         1 TSJ      -0.183300
      6 CAI          2.1300     2.3920     0.0010 ca         1 TSJ      -0.065000
      7 CAG          2.1360     1.1950    -2.0740 ca         1 TSJ      -0.087000
      8 CAF          2.5960     2.3200    -2.7310 ca         1 TSJ      -0.098300
      9 CAU          2.8500     2.2720    -4.2170 c3         1 TSJ      -0.044800
     10 CAE          2.8240     3.4880    -2.0310 ca         1 TSJ      -0.082000
     11 CAJ          2.5940     3.5280    -0.6580 ca         1 TSJ      -0.099500
     12 CAK          2.8360     4.7820     0.1010 cc         1 TSJ       0.392800
     13 CAO          2.6450     4.9590     1.4840 cc         1 TSJ      -0.350300
     14 NAL          3.2700     5.9170    -0.4030 nd         1 TSJ      -0.524800
     15 NAM          3.3660     6.8520     0.6370 na         1 TSJ      -0.073600
     16 CAN          2.9770     6.2420     1.7870 cd         1 TSJ       0.081300
     17 NAP          2.9300     6.8260     3.0520 ns         1 TSJ      -0.464100
     18 CAQ          2.5260     6.1020     4.1140 c          1 TSJ       0.692700
     19 OAR          2.2020     4.9390     3.9690 o          1 TSJ      -0.605100
     20 C4           2.4750     6.7220     5.4570 ca         1 TSJ      -0.190600
     21 C3           2.9690     8.0140     5.6480 ca         1 TSJ      -0.133000
     22 C2           2.9220     8.5920     6.8970 ca         1 TSJ      -0.110000
     23 C1           2.3800     7.8850     7.9730 ca         1 TSJ      -0.062600
     24 C8           2.3290     8.5070     9.3150 c          1 TSJ       0.876200
     25 O1           1.8580     7.8920    10.2510 o          1 TSJ      -0.826300
     26 O2           2.8060     9.7520     9.5000 o          1 TSJ      -0.826300
     27 C6           1.8860     6.5940     7.7820 ca         1 TSJ      -0.120000
     28 C5           1.9290     6.0180     6.5310 ca         1 TSJ      -0.037300
     29 C7           1.3900     4.6260     6.3230 c3         1 TSJ      -0.041800
     30 H1           1.9500     2.4190     1.0680 ha         1 TSJ       0.164000
     31 H2           1.9630     0.2800    -2.6270 ha         1 TSJ       0.140000
     32 H3           2.2430     1.4940    -4.6620 hc         1 TSJ       0.043033
     33 H4           2.5940     3.2280    -4.6580 hc         1 TSJ       0.043033
     34 H5           3.8970     2.0610    -4.3970 hc         1 TSJ       0.043033
     35 H6           3.1840     4.3690    -2.5470 ha         1 TSJ       0.152000
     36 H7           2.2950     4.2080     2.1820 ha         1 TSJ       0.204000
     37 H9           3.1710     7.7900     3.1660 hn         1 TSJ       0.327500
     38 H10          3.3890     8.5630     4.8130 ha         1 TSJ       0.095000
     39 H11          3.3050     9.5940     7.0450 ha         1 TSJ       0.160000
     40 H13          1.4640     6.0470     8.6170 ha         1 TSJ       0.158000
     41 H14          2.1960     3.9680     6.0200 hc         1 TSJ       0.043367
     42 H15          0.6300     4.6440     5.5520 hc         1 TSJ       0.043367
     43 H16          0.9570     4.2650     7.2480 hc         1 TSJ       0.043367
     44 H8           3.6690     7.8020     0.5480 hn         1 TSJ       0.322700
@<TRIPOS>BOND
     1     9     8 1
     2     8     7 ar
     3     8    10 ar
     4     7     5 ar
     5    10    11 ar
     6     3     2 1
     7     5     2 1
     8     5     6 ar
     9    11     6 ar
    10    11    12 1
    11     1     2 1
    12     2     4 1
    13    14    12 2
    14    14    15 1
    15    12    13 1
    16    15    16 1
    17    13    16 2
    18    16    17 1
    19    17    18 1
    20    18    19 2
    21    18    20 1
    22    29    28 1
    23    20    28 ar
    24    20    21 ar
    25    28    27 ar
    26    21    22 ar
    27    27    23 ar
    28    22    23 ar
    29    23    24 1
    30    24    25 1
    31    24    26 1
    32     6    30 1
    33     7    31 1
    34     9    32 1
    35     9    33 1
    36     9    34 1
    37    10    35 1
    38    13    36 1
    39    17    37 1
    40    21    38 1
    41    22    39 1
    42    27    40 1
    43    29    41 1
    44    29    42 1
    45    29    43 1
    46    15    44 1
@<TRIPOS>SUBSTRUCTURE
     1 TSJ         1 TEMP              0 ****  ****    0 ROOT
