@<TRIPOS>MOLECULE
TSJ
   44    46     1     0     0
SMALL
bcc


@<TRIPOS>ATOM
      1 F1           0.0000     0.0000     0.0000 f          1 TSJ      -0.210300
      2 CAV          1.4000     0.0000     0.0000 c3         1 TSJ       0.640200
      3 F2           1.8660     0.0000     1.3190 f          1 TSJ      -0.210300
      4 F3           1.8670    -1.1410    -0.6600 f          1 TSJ      -0.210300
      5 CAH          1.9020     1.2310    -0.7110 ca         1 TSJ      -0.213300
      6 CAI          2.1300     2.3920     0.0010 ca         1 TSJ      -0.036000
      7 CAG          2.1360     1.1950    -2.0740 ca         1 TSJ      -0.054000
      8 CAF          2.5960     2.3200    -2.7310 ca         1 TSJ      -0.107300
      9 CAU          2.8500     2.2720    -4.2170 c3         1 TSJ       0.068200
     10 CAE          2.8240     3.4880    -2.0310 ca         1 TSJ      -0.051000
     11 CAJ          2.5940     3.5280    -0.6580 ca         1 TSJ      -0.100500
     12 CAK          2.8360     4.7820     0.1010 cc         1 TSJ       0.423800
     13 CAO          2.6450     4.9590     1.4840 cc         1 TSJ      -0.344300
     14 NAL          3.2700     5.9170    -0.4030 nd         1 TSJ      -0.675800
     15 NAM          3.3660     6.8520     0.6370 na         1 TSJ       0.408400
     16 CAN          2.9770     6.2420     1.7870 cd         1 TSJ      -0.224700
     17 NAP          2.9300     6.8260     3.0520 ns         1 TSJ      -0.017100
     18 CAQ          2.5260     6.1020     4.1140 c          1 TSJ       0.609700
     19 OAR          2.2020     4.9390     3.9690 o          1 TSJ      -0.644100
     20 C4           2.4750     6.7220     5.4570 ca         1 TSJ      -0.211600
     21 C3           2.9690     8.0140     5.6480 ca         1 TSJ      -0.118000
     22 C2           2.9220     8.5920     6.8970 ca         1 TSJ      -0.082000
     23 C1           2.3800     7.8850     7.9730 ca         1 TSJ      -0.059600
     24 C8           2.3290     8.5070     9.3150 c          1 TSJ       0.966200
     25 O1           1.8580     7.8920    10.2510 o          1 TSJ      -0.875300
     26 O2           2.8060     9.7520     9.5000 o          1 TSJ      -0.875300
     27 C6           1.8860     6.5940     7.7820 ca         1 TSJ      -0.099000
     28 C5           1.9290     6.0180     6.5310 ca         1 TSJ      -0.035300
     29 C7           1.3900     4.6260     6.3230 c3         1 TSJ       0.051200
     30 H1           1.9500     2.4190     1.0680 ha         1 TSJ       0.136000
     31 H2           1.9630     0.2800    -2.6270 ha         1 TSJ       0.114000
     32 H3           2.2430     1.4940    -4.6620 hc         1 TSJ       0.006700
     33 H4           2.5940     3.2280    -4.6580 hc         1 TSJ       0.006700
     34 H5           3.8970     2.0610    -4.3970 hc         1 TSJ       0.006700
     35 H6           3.1840     4.3690    -2.5470 ha         1 TSJ       0.126000
     36 H7           2.2950     4.2080     2.1820 ha         1 TSJ       0.196000
     37 H9           3.1710     7.7900     3.1660 hn         1 TSJ       0.172500
     38 H10          3.3890     8.5630     4.8130 ha         1 TSJ       0.077000
     39 H11          3.3050     9.5940     7.0450 ha         1 TSJ       0.133000
     40 H13          1.4640     6.0470     8.6170 ha         1 TSJ       0.132000
     41 H14          2.1960     3.9680     6.0200 hc         1 TSJ       0.012033
     42 H15          0.6300     4.6440     5.5520 hc         1 TSJ       0.012033
     43 H16          0.9570     4.2650     7.2480 hc         1 TSJ       0.012033
     44 H8           3.6690     7.8020     0.5480 hn         1 TSJ       0.144700
@<TRIPOS>BOND
     1     1     2 1   
     2     2     3 1   
     3     2     4 1   
     4     2     5 1   
     5     5     6 ar  
     6     5     7 ar  
     7     6    11 ar  
     8     6    30 1   
     9     7     8 ar  
    10     7    31 1   
    11     8     9 1   
    12     8    10 ar  
    13     9    32 1   
    14     9    33 1   
    15     9    34 1   
    16    10    11 ar  
    17    10    35 1   
    18    11    12 1   
    19    12    13 1   
    20    12    14 2   
    21    13    16 2   
    22    13    36 1   
    23    14    15 1   
    24    15    16 1   
    25    15    44 1   
    26    16    17 1   
    27    17    18 1   
    28    17    37 1   
    29    18    19 2   
    30    18    20 1   
    31    20    21 ar  
    32    20    28 ar  
    33    21    22 ar  
    34    21    38 1   
    35    22    23 ar  
    36    22    39 1   
    37    23    24 1   
    38    23    27 ar  
    39    24    25 1   
    40    24    26 1   
    41    27    28 ar  
    42    27    40 1   
    43    28    29 1   
    44    29    41 1   
    45    29    42 1   
    46    29    43 1   
@<TRIPOS>SUBSTRUCTURE
     1 TSJ         1 TEMP              0 ****  ****    0 ROOT
