@<TRIPOS>MOLECULE
TSK
   44    48     1     0     0
SMALL
bcc


@<TRIPOS>ATOM
      1 N1          0.3060   -0.2020    0.1640 n         1 TSK     -0.629500
      2 C2          1.6630    0.1850    0.2530 c         1 TSK      0.708700
      3 C3          2.0400    0.1050    1.7200 cc        1 TSK     -0.080200
      4 C4          0.9330   -0.2850    2.4320 cd        1 TSK     -0.030200
      5 C5         -0.2040   -0.5070    1.4450 c         1 TSK      0.703700
      6 O6         -1.3630   -0.8710    1.6520 o         1 TSK     -0.564500
      7 O7          2.3460    0.5130   -0.7180 o         1 TSK     -0.564500
      8 C8          3.3650    0.3710    2.1770 cc        1 TSK     -0.098200
      9 C9          4.2780    1.4080    1.7040 ca        1 TSK     -0.054800
     10 C10         5.4610    1.2550    2.4860 ca        1 TSK      0.021100
     11 O11         5.3230    0.1890    3.3820 os        1 TSK     -0.170200
     12 C12         4.0440   -0.3210    3.1660 cd        1 TSK      0.019100
     13 C13         0.7670   -0.4220    3.8370 cd        1 TSK     -0.130200
     14 C14         1.4380    0.3600    4.7970 cc        1 TSK     -0.045100
     15 N15         1.0660   -0.0140    6.0800 na        1 TSK     -0.058400
     16 C16         0.1250   -1.0550    5.9760 ca        1 TSK     -0.077200
     17 C17        -0.0870   -1.3370    4.5730 ca        1 TSK     -0.020800
     18 C18         4.2260    2.4130    0.7390 ca        1 TSK     -0.104000
     19 C19         5.3340    3.2400    0.5870 ca        1 TSK     -0.109000
     20 C20         6.4920    3.0930    1.3650 ca        1 TSK     -0.189000
     21 C21         6.5760    2.0880    2.3350 ca        1 TSK      0.138100
     22 C22        -0.9700   -2.3480    4.2130 ca        1 TSK     -0.118000
     23 C23        -1.6300   -3.0680    5.2210 ca        1 TSK      0.140900
     24 C24        -1.4180   -2.7860    6.5960 ca        1 TSK     -0.000100
     25 C25        -0.5410   -1.7770    6.9720 ca        1 TSK     -0.083000
     26 C26         1.4810    0.6100    7.2930 c3        1 TSK      0.021600
     27 F30        -2.4850   -4.0500    4.8450 f         1 TSK     -0.126900
     28 I31        -2.3470   -3.7960    8.0840 i         1 TSK     -0.118900
     29 O32         7.6520    1.8520    3.1620 os        1 TSK     -0.311900
     30 C33         8.8130    2.6370    2.9060 c3        1 TSK      0.111700
     31 HN1        -0.2110   -0.2580   -0.6750 hn        1 TSK      0.350500
     32 H12         3.7940   -1.1750    3.7940 h4        1 TSK      0.201000
     33 H14         2.1650    1.1620    4.6280 h4        1 TSK      0.184000
     34 H18         3.3390    2.5260    0.0990 ha        1 TSK      0.158000
     35 H19         5.3110    4.0370   -0.1730 ha        1 TSK      0.138000
     36 H20         7.3380    3.7750    1.2020 ha        1 TSK      0.142000
     37 H22        -1.1740   -2.5730    3.1540 ha        1 TSK      0.177000
     38 H25        -0.3660   -1.5440    8.0340 ha        1 TSK      0.150000
     39 H26         0.6640    1.2700    7.6930 h1        1 TSK      0.059033
     40 H26A        2.3960    1.2320    7.1040 h1        1 TSK      0.059033
     41 H26B        1.7180   -0.1760    8.0590 h1        1 TSK      0.059033
     42 H33         9.5580    2.2410    3.6420 h1        1 TSK      0.047033
     43 H33A        9.1710    2.4870    1.8590 h1        1 TSK      0.047033
     44 H33B        8.6040    3.7180    3.0980 h1        1 TSK      0.047033
@<TRIPOS>BOND
     1    1    2 1   
     2    1    5 1   
     3    1   31 1   
     4    2    3 1   
     5    2    7 2   
     6    3    4 2   
     7    3    8 1   
     8    4    5 1   
     9    4   13 1   
    10    5    6 2   
    11    8    9 1   
    12    8   12 2   
    13    9   10 ar  
    14    9   18 ar  
    15   10   11 1   
    16   10   21 ar  
    17   11   12 1   
    18   12   32 1   
    19   13   14 2   
    20   13   17 1   
    21   14   15 1   
    22   14   33 1   
    23   15   16 1   
    24   15   26 1   
    25   16   17 ar  
    26   16   25 ar  
    27   17   22 ar  
    28   18   19 ar  
    29   18   34 1   
    30   19   20 ar  
    31   19   35 1   
    32   20   21 ar  
    33   20   36 1   
    34   21   29 1   
    35   22   23 ar  
    36   22   37 1   
    37   23   24 ar  
    38   23   27 1   
    39   24   25 ar  
    40   24   28 1   
    41   25   38 1   
    42   26   39 1   
    43   26   40 1   
    44   26   41 1   
    45   29   30 1   
    46   30   42 1   
    47   30   43 1   
    48   30   44 1   
@<TRIPOS>SUBSTRUCTURE
     1 TSK         1 TEMP              0 ****  ****    0 ROOT
