@<TRIPOS>MOLECULE
TSL
   27    28     1     0     0
SMALL
bcc


@<TRIPOS>ATOM
      1 C14          0.0000     0.0000     0.0000 c3         1 TSL      -0.106500
      2 C2           1.5300     0.0000     0.0000 c3         1 TSL      -0.360000
      3 S1           2.1340    -1.4810    -0.8550 s4         1 TSL       1.294000
      4 O12          1.6710    -1.2620    -2.2880 oh         1 TSL      -0.578000
      5 O13          1.3750    -2.6090    -0.4430 o          1 TSL      -0.783000
      6 C20          2.0390     1.2490    -0.7200 c3         1 TSL      -0.106500
      7 C3           2.0390     0.0000     1.4430 c3         1 TSL      -0.150000
      8 C9           3.5460    -0.0360     1.4430 c2         1 TSL       0.389000
      9 O11          4.2450     1.1070     1.3560 o          1 TSL      -0.587500
     10 O10          4.1250    -1.0940     1.5220 o          1 TSL      -0.587500
     11 N4           1.5230    -1.1790     2.1430 ny         1 TSL       0.364000
     12 C5           1.3920    -1.1630     3.5000 c2         1 TSL      -0.199000
     13 C6           0.9150    -2.2540     4.1470 c2         1 TSL      -0.630000
     14 C7           0.7810    -2.2380     5.5430 c3         1 TSL       0.409000
     15 O8           0.3520    -3.2140     6.1240 o          1 TSL      -0.452000
     16 H141        -0.3610    -0.9670     0.3280 hc         1 TSL       0.056000
     17 H142        -0.3610     0.7680     0.6740 hc         1 TSL       0.056000
     18 H143        -0.3610     0.2000    -1.0020 hc         1 TSL       0.056000
     19 H12          2.1240    -1.8590    -2.8600 ho         1 TSL       0.255000
     20 H201         3.0740     1.1050    -1.0060 hc         1 TSL       0.056000
     21 H202         1.4410     1.4240    -1.6060 hc         1 TSL       0.056000
     22 H203         1.9640     2.1040    -0.0590 hc         1 TSL       0.056000
     23 H3           1.6990     0.8970     1.9460 hx         1 TSL       0.114000
     24 HN4          1.3170    -2.0140     1.6310 hn         1 TSL       0.081000
     25 H5           0.5710    -1.0360     2.8040 DU         1 TSL       0.181000
     26 H6           0.1070    -1.7650     4.6790 DU         1 TSL       0.112000
     27 H7           1.0940    -1.3670     6.1060 h1         1 TSL       0.006000
@<TRIPOS>BOND
     1     1     2 1   
     2     1    16 1   
     3     1    17 1   
     4     1    18 1   
     5     2     3 1   
     6     2     6 1   
     7     2     7 1   
     8     3     4 1   
     9     3     5 1   
    10     4    19 1   
    11     6    20 1   
    12     6    21 1   
    13     6    22 1   
    14     7     8 1   
    15     7    11 1   
    16     7    23 1   
    17     8     9 1   
    18     8    10 1   
    19    11    12 1   
    20    11    24 1   
    21    11    25 1   
    22    12    13 1   
    23    12    25 1   
    24    13    14 1   
    25    13    26 1   
    26    14    15 1   
    27    14    26 1   
    28    14    27 1   
@<TRIPOS>SUBSTRUCTURE
     1 TSL         1 TEMP              0 ****  ****    0 ROOT
