@<TRIPOS>MOLECULE
molecule
   27    26     1     0     0
SMALL
bcc


@<TRIPOS>ATOM
      1 C14          0.0000     0.0000     0.0000 c3         1 TSL      -0.062600
      2 C2           1.5300     0.0000     0.0000 c3         1 TSL      -0.062700
      3 S1           2.1340    -1.4810    -0.8550 s4         1 TSL       0.678700
      4 O12          1.6710    -1.2620    -2.2880 oh         1 TSL      -0.655800
      5 O13          1.3750    -2.6090    -0.4430 o          1 TSL      -0.583200
      6 C20          2.0390     1.2490    -0.7200 c3         1 TSL      -0.062600
      7 C3           2.0390     0.0000     1.4430 c3         1 TSL       0.140500
      8 C9           3.5460    -0.0360     1.4430 c          1 TSL       0.862600
      9 O11          4.2450     1.1070     1.3560 o          1 TSL      -0.826300
     10 O10          4.1250    -1.0940     1.5220 o          1 TSL      -0.826300
     11 N4           1.5230    -1.1790     2.1430 nu         1 TSL      -0.755000
     12 C5           1.3920    -1.1630     3.5000 c2         1 TSL       0.205000
     13 C6           0.9150    -2.2540     4.1470 ce         1 TSL      -0.492200
     14 C7           0.7810    -2.2380     5.5430 c          1 TSL       0.600100
     15 O8           0.3520    -3.2140     6.1240 o          1 TSL      -0.617100
     16 H141        -0.3610     0.8170     0.6120 hc         1 TSL       0.039533
     17 H142        -0.3610    -0.9390     0.4020 hc         1 TSL       0.039533
     18 H143        -0.3610     0.1220    -1.0140 hc         1 TSL       0.039533
     19 H12          2.1350    -1.8490    -2.8620 ho         1 TSL       0.455000
     20 H201         1.4630     1.4050    -1.6240 hc         1 TSL       0.039533
     21 H202         3.0840     1.1180    -0.9770 hc         1 TSL       0.039533
     22 H203         1.9320     2.1100    -0.0710 hc         1 TSL       0.039533
     23 H3           1.6990     0.8970     1.9460 h1         1 TSL       0.066700
     24 HN4          1.3020    -2.0090     1.6290 hn         1 TSL       0.461800
     25 H5           1.6710    -0.2790     4.0600 h4         1 TSL       0.139000
     26 H6           0.6370    -3.1380     3.5870 ha         1 TSL       0.145000
     27 H7           1.0600    -1.3530     6.1030 h4         1 TSL      -0.047800
@<TRIPOS>BOND
     1     1     2 1
     2     1    16 1
     3     1    17 1
     4     1    18 1
     5     2     3 1
     6     2     6 1
     7     2     7 1
     8     3     4 1
     9     3     5 2
    10     4    19 1
    11     6    20 1
    12     6    21 1
    13     6    22 1
    14     7     8 1
    15     7    11 1
    16     7    23 1
    17     8     9 1
    18     8    10 1
    19    11    12 1
    20    11    24 1
    21    12    13 2
    22    12    25 1
    23    13    14 1
    24    13    26 1
    25    14    15 2
    26    14    27 1
@<TRIPOS>SUBSTRUCTURE
     1 TSL         1 TEMP              0 ****  ****    0 ROOT
