@<TRIPOS>MOLECULE
molecule
   17    16     1     0     0
SMALL
bcc


@<TRIPOS>ATOM
      1 S            0.0000     0.0000     0.0000 s6         1 TSM       1.269800
      2 O1S          1.4210     0.0000     0.0000 o          1 TSM      -0.709533
      3 O2S         -0.7330     0.0000     1.2170 o          1 TSM      -0.709533
      4 C           -0.6360     1.2710    -1.1270 c3         1 TSM      -0.228200
      5 C1          -2.1510     1.1150    -1.2700 c3         1 TSM      -0.052100
      6 C2          -0.3170     2.6580    -0.5640 c3         1 TSM      -0.052100
      7 C3           0.0240     1.1140    -2.4980 c3         1 TSM      -0.052100
      8 H11         -2.5310     1.8760    -1.9400 hc         1 TSM       0.027033
      9 H12         -2.6180     1.2220    -0.2990 hc         1 TSM       0.027033
     10 H13         -2.3760     0.1350    -1.6730 hc         1 TSM       0.027033
     11 H21         -0.7850     2.7700     0.4070 hc         1 TSM       0.027033
     12 H22          0.7560     2.7690    -0.4630 hc         1 TSM       0.027033
     13 H23         -0.6970     3.4170    -1.2370 hc         1 TSM       0.027033
     14 H31         -0.2050     0.1340    -2.8990 hc         1 TSM       0.027033
     15 H32          1.0970     1.2210    -2.3970 hc         1 TSM       0.027033
     16 H33         -0.3530     1.8750    -3.1700 hc         1 TSM       0.027033
     17 O3          -0.3750    -1.3170    -0.6640 o          1 TSM      -0.709533
@<TRIPOS>BOND
     1     1     2 1
     2     1     3 1
     3     1     4 1
     4     4     5 1
     5     4     6 1
     6     4     7 1
     7     5     8 1
     8     5     9 1
     9     5    10 1
    10     6    11 1
    11     6    12 1
    12     6    13 1
    13     7    14 1
    14     7    15 1
    15     7    16 1
    16    17     1 1
@<TRIPOS>SUBSTRUCTURE
     1 TSM         1 TEMP              0 ****  ****    0 ROOT
