@<TRIPOS>MOLECULE
TSM
   17    16     1     0     0
SMALL
bcc


@<TRIPOS>ATOM
      1 S           0.2490    0.1600    0.0140 s6        1 TSM      1.421800
      2 O1S         1.5110    0.7850    0.1460 o         1 TSM     -0.747200
      3 O2S        -0.4940    0.1200    1.2170 o         1 TSM     -0.747200
      4 C          -0.7070    1.2650   -1.0890 c3        1 TSM     -0.238200
      5 C1         -2.0820    0.6770   -1.2920 c3        1 TSM     -0.050100
      6 C2         -0.8120    2.6240   -0.4420 c3        1 TSM     -0.050100
      7 C3          0.0130    1.3720   -2.4110 c3        1 TSM     -0.050100
      8 H11        -1.9980   -0.3380   -1.7530 hc        1 TSM      0.023033
      9 H12        -2.6040    0.5820   -0.3080 hc        1 TSM      0.023033
     10 H13        -2.7010    1.3220   -1.9620 hc        1 TSM      0.023033
     11 H21        -1.3910    3.3320   -1.0850 hc        1 TSM      0.023033
     12 H22        -1.3290    2.5370    0.5450 hc        1 TSM      0.023033
     13 H23         0.2090    3.0470   -0.2770 hc        1 TSM      0.023033
     14 H31         1.0380    1.7900   -2.2540 hc        1 TSM      0.023033
     15 H32        -0.5390    2.0400   -3.1170 hc        1 TSM      0.023033
     16 H33         0.1060    0.3600   -2.8770 hc        1 TSM      0.023033
     17 O3          0.2960   -1.0790   -0.6670 o         1 TSM     -0.747200
@<TRIPOS>BOND
     1    1    2 1   
     2    1    3 1   
     3    1    4 1   
     4    1   17 1   
     5    4    5 1   
     6    4    6 1   
     7    4    7 1   
     8    5    8 1   
     9    5    9 1   
    10    5   10 1   
    11    6   11 1   
    12    6   12 1   
    13    6   13 1   
    14    7   14 1   
    15    7   15 1   
    16    7   16 1   
@<TRIPOS>SUBSTRUCTURE
     1 TSM         1 TEMP              0 ****  ****    0 ROOT
