@<TRIPOS>MOLECULE
TSN
   44    46     1     0     0
SMALL
bcc


@<TRIPOS>ATOM
      1 O1           0.0000     0.0000     0.0000 oh         1 TSN      -0.237000
      2 O2           1.4820     0.0010     2.2210 o          1 TSN      -0.395000
      3 N1           1.4170     0.0000     0.0000 n7         1 TSN       0.088000
      4 N2          13.6350    -2.7270     2.7860 nh         1 TSN       0.019000
      5 C1           9.8340    -1.4420     3.8480 ca         1 TSN      -0.241000
      6 C2          10.4260    -2.5180     4.5220 ca         1 TSN       0.002500
      7 C3          11.6760    -2.9380     4.1690 ca         1 TSN      -0.213000
      8 C4          12.3630    -2.2970     3.1410 ca         1 TSN       0.025000
      9 C5          11.7780    -1.2280     2.4680 ca         1 TSN      -0.213000
     10 C6          10.5260    -0.8050     2.8110 ca         1 TSN       0.002500
     11 C7           8.4910    -0.9880     4.2240 c2         1 TSN       0.291000
     12 C8           7.8550     0.1700     3.4980 c3         1 TSN      -0.107000
     13 C9           6.3590    -0.0010     3.4930 c2         1 TSN      -0.534000
     14 C10          5.6910    -0.0010     2.3370 c3         1 TSN       0.176000
     15 C11          4.2280    -0.0010     2.3370 c2         1 TSN       0.171000
     16 C12          3.5520    -0.0020     1.1670 c2         1 TSN      -0.234000
     17 C13          2.0900     0.0000     1.1670 c3         1 TSN       0.311000
     18 C14          8.2170     1.4770     4.2060 c3         1 TSN      -0.082000
     19 C15          6.4450    -0.0030     1.0320 c3         1 TSN      -0.126000
     20 C17         14.3010    -3.7700     3.5690 c3         1 TSN      -0.068000
     21 C16         14.3110    -2.1380     1.6270 c3         1 TSN      -0.068000
     22 HO1         -0.3140     0.0610    -0.8870 ho         1 TSN       0.194000
     23 HN1          1.9170     0.0300    -0.8660 hn         1 TSN       0.076000
     24 H21          9.8930    -3.0150     5.3230 ha         1 TSN       0.112500
     25 H31         12.1350    -3.7700     4.6910 ha         1 TSN       0.118500
     26 H51         12.3140    -0.7350     1.6660 ha         1 TSN       0.118500
     27 H61         10.0720     0.0270     2.2860 ha         1 TSN       0.112500
     28 H8           8.2190     0.1990     2.4780 hc         1 TSN       0.054000
     29 H9           7.0180    -0.8470     3.3370 ha         1 TSN       0.224000
     30 H111         4.8390    -0.8760     2.1520 DU         1 TSN       0.007000
     31 H121         2.9400    -0.8750     1.3540 DU         1 TSN       0.063000
     32 H141         7.3190     1.9330     4.6040 hc         1 TSN       0.050667
     33 H142         8.9060     1.2700     5.0170 hc         1 TSN       0.050667
     34 H143         8.6840     2.1530     3.5000 hc         1 TSN       0.050667
     35 H151         5.7410     0.0240     0.2090 hc         1 TSN       0.069333
     36 H152         7.0880     0.8680     0.9860 hc         1 TSN       0.069333
     37 H153         7.0470    -0.9010     0.9640 hc         1 TSN       0.069333
     38 H171        14.3500    -3.4660     4.6080 h1         1 TSN       0.047000
     39 H172        15.3040    -3.9220     3.1900 h1         1 TSN       0.047000
     40 H173        13.7420    -4.6940     3.4900 h1         1 TSN       0.047000
     41 H161        15.2560    -2.6430     1.4650 h1         1 TSN       0.047000
     42 H162        14.4910    -1.0850     1.8100 h1         1 TSN       0.047000
     43 H163        13.6860    -2.2500     0.7490 h1         1 TSN       0.047000
     44 O3           7.8900    -1.5430     5.1200 o          1 TSN      -0.288000
@<TRIPOS>BOND
     1     1     3 1   
     2     1    22 1   
     3     2    17 1   
     4     3    17 1   
     5     3    23 1   
     6     4     8 1   
     7     4    20 1   
     8     4    21 1   
     9     5     6 1   
    10     5    10 1   
    11     5    11 1   
    12     6     7 1   
    13     6    24 1   
    14     7     8 1   
    15     7    25 1   
    16     8     9 1   
    17     9    10 1   
    18     9    26 1   
    19    10    27 1   
    20    11    12 1   
    21    11    44 1   
    22    12    13 1   
    23    12    18 1   
    24    12    28 1   
    25    13    14 1   
    26    13    29 1   
    27    14    15 1   
    28    14    19 1   
    29    14    30 1   
    30    15    16 1   
    31    15    30 1   
    32    16    17 1   
    33    16    31 1   
    34    17    31 1   
    35    18    32 1   
    36    18    33 1   
    37    18    34 1   
    38    19    35 1   
    39    19    36 1   
    40    19    37 1   
    41    20    38 1   
    42    20    39 1   
    43    20    40 1   
    44    21    41 1   
    45    21    42 1   
    46    21    43 1   
@<TRIPOS>SUBSTRUCTURE
     1 TSN         1 TEMP              0 ****  ****    0 ROOT
