@<TRIPOS>MOLECULE
molecule
   44    44     1     0     0
SMALL
bcc


@<TRIPOS>ATOM
      1 O1           0.0000     0.0000     0.0000 oh         1 TSN      -0.362100
      2 O2           1.4820     0.0010     2.2210 o          1 TSN      -0.585100
      3 N1           1.4170     0.0000     0.0000 ns         1 TSN      -0.470400
      4 N2          13.6350    -2.7270     2.7860 nh         1 TSN      -0.729000
      5 C1           9.8340    -1.4420     3.8480 ca         1 TSN      -0.244600
      6 C2          10.4260    -2.5180     4.5220 ca         1 TSN      -0.031000
      7 C3          11.6760    -2.9380     4.1690 ca         1 TSN      -0.225000
      8 C4          12.3630    -2.2970     3.1410 ca         1 TSN       0.234600
      9 C5          11.7780    -1.2280     2.4680 ca         1 TSN      -0.225000
     10 C6          10.5260    -0.8050     2.8110 ca         1 TSN      -0.031000
     11 C7           8.4910    -0.9880     4.2240 c          1 TSN       0.592700
     12 C8           7.8550     0.1700     3.4980 c3         1 TSN      -0.144500
     13 C9           6.3590    -0.0010     3.4930 c2         1 TSN      -0.107200
     14 C10          5.6910    -0.0010     2.3370 ce         1 TSN      -0.129200
     15 C11          4.2280    -0.0010     2.3370 ce         1 TSN      -0.018000
     16 C12          3.5520    -0.0020     1.1670 cf         1 TSN      -0.264200
     17 C13          2.0900     0.0000     1.1670 c          1 TSN       0.680300
     18 C14          8.2170     1.4770     4.2060 c3         1 TSN      -0.076100
     19 C15          6.4450    -0.0030     1.0320 c3         1 TSN      -0.056900
     20 C17         14.3010    -3.7700     3.5690 c3         1 TSN       0.227600
     21 C16         14.3110    -2.1380     1.6270 c3         1 TSN       0.227600
     22 HO1         -0.3140     0.0010    -0.8890 ho         1 TSN       0.396000
     23 HN1          1.9170     0.0180    -0.8670 hn         1 TSN       0.318500
     24 H21          9.8930    -3.0150     5.3230 ha         1 TSN       0.141000
     25 H31         12.1350    -3.7700     4.6910 ha         1 TSN       0.135000
     26 H51         12.3140    -0.7350     1.6660 ha         1 TSN       0.135000
     27 H61         10.0720     0.0270     2.2860 ha         1 TSN       0.141000
     28 H8           8.2190     0.1990     2.4780 hc         1 TSN       0.069700
     29 H9           5.8150     0.0000     4.4290 ha         1 TSN       0.149000
     30 H111         3.6870     0.0010     3.2750 ha         1 TSN       0.161000
     31 H121         4.0940    -0.0030     0.2290 ha         1 TSN       0.129000
     32 H141         7.9870     2.3140     3.5590 hc         1 TSN       0.045033
     33 H142         9.2760     1.4810     4.4380 hc         1 TSN       0.045033
     34 H143         7.6470     1.5610     5.1230 hc         1 TSN       0.045033
     35 H151         6.9510     0.9470     0.9070 hc         1 TSN       0.043700
     36 H152         5.7510    -0.1520     0.2140 hc         1 TSN       0.043700
     37 H153         7.1750    -0.8030     1.0380 hc         1 TSN       0.043700
     38 H171        14.3500    -3.4660     4.6080 h1         1 TSN       0.038533
     39 H172        15.3040    -3.9220     3.1900 h1         1 TSN       0.038533
     40 H173        13.7410    -4.6940     3.4900 h1         1 TSN       0.038533
     41 H161        14.4950    -1.0870     1.8120 h1         1 TSN       0.038533
     42 H162        13.6840    -2.2460     0.7500 h1         1 TSN       0.038533
     43 H163        15.2530    -2.6460     1.4620 h1         1 TSN       0.038533
     44 O3           7.8900    -1.5430     5.1200 o          1 TSN      -0.535100
@<TRIPOS>BOND
     1     1     3 1
     2     1    22 1
     3     2    17 2
     4    44    11 2
     5     3    17 1
     6     3    23 1
     7     4     8 1
     8     4    20 1
     9     4    21 1
    10     5     6 ar
    11     5    10 ar
    12     5    11 1
    13     6     7 ar
    14     6    24 1
    15     7     8 ar
    16     7    25 1
    17     8     9 ar
    18     9    10 ar
    19     9    26 1
    20    10    27 1
    21    11    12 1
    22    12    13 1
    23    12    18 1
    24    12    28 1
    25    13    14 2
    26    13    29 1
    27    14    15 1
    28    14    19 1
    29    15    16 2
    30    15    30 1
    31    16    17 1
    32    16    31 1
    33    18    32 1
    34    18    33 1
    35    18    34 1
    36    19    35 1
    37    19    36 1
    38    19    37 1
    39    20    38 1
    40    20    39 1
    41    20    40 1
    42    21    41 1
    43    21    42 1
    44    21    43 1
@<TRIPOS>SUBSTRUCTURE
     1 TSN         1 TEMP              0 ****  ****    0 ROOT
