@<TRIPOS>MOLECULE
molecule
   26    27     1     0     0
SMALL
bcc


@<TRIPOS>ATOM
      1 C2           0.0000     0.0000     0.0000 c2         1 TSO      -0.051200
      2 C3           1.2940     0.0000     0.0000 c2         1 TSO      -0.228200
      3 C4           2.1490     0.0000     1.2300 c3         1 TSO       0.152300
      4 O4           2.7840     1.2740     1.3580 oh         1 TSO      -0.639800
      5 C6           0.0220     0.5360     2.4150 c3         1 TSO      -0.079400
      6 C7          -2.0920     0.7720     1.0910 c          1 TSO       0.913600
      7 O71         -2.9770     0.4270     0.1420 o          1 TSO      -0.871800
      8 O72         -2.3110     1.7190     1.8070 o          1 TSO      -0.871800
      9 C8          -1.1260    -1.5000     1.5870 c3         1 TSO      -0.059400
     10 C1'          0.2120    -2.2470     1.6440 c3         1 TSO       0.033100
     11 O1'          1.0460    -1.6570     2.6390 os         1 TSO      -0.439600
     12 C2'          0.8920    -2.1630     0.3020 c          1 TSO       0.890600
     13 O'L          2.0980    -2.1170     0.2370 o          1 TSO      -0.852300
     14 O'M          0.1590    -2.1350    -0.8220 o          1 TSO      -0.852300
     15 C5           1.3210    -0.2740     2.4800 c3         1 TSO       0.149100
     16 C1          -0.8230    -0.0250     1.2620 c3         1 TSO      -0.118800
     17 H2          -0.5160     0.0220    -0.9520 ha         1 TSO       0.145000
     18 H3           1.7960     0.0020    -0.9600 ha         1 TSO       0.106000
     19 H4           2.9050    -0.7690     1.1330 h1         1 TSO       0.086700
     20 HA           3.7090     1.1810     1.2040 ho         1 TSO       0.361000
     21 H5           1.8870     0.0600     3.3410 h1         1 TSO       0.024700
     22 H61C        -0.5180     0.4370     3.3490 hc         1 TSO       0.039700
     23 H62C         0.2490     1.5790     2.2310 hc         1 TSO       0.039700
     24 H81C        -1.6250    -1.5690     2.5460 hc         1 TSO       0.042200
     25 H82C        -1.7500    -1.9260     0.8110 hc         1 TSO       0.042200
     26 H1'          0.0330    -3.2850     1.8970 h1         1 TSO       0.037700
@<TRIPOS>BOND
     1     1     2 2
     2     1    16 1
     3     2     3 1
     4     3     4 1
     5     3    15 1
     6     5    15 1
     7     5    16 1
     8     6     7 1
     9     6     8 1
    10     6    16 1
    11     9    10 1
    12     9    16 1
    13    10    11 1
    14    10    12 1
    15    11    15 1
    16    12    13 1
    17    12    14 1
    18     1    17 1
    19     2    18 1
    20     3    19 1
    21     4    20 1
    22    15    21 1
    23     5    22 1
    24     5    23 1
    25     9    24 1
    26     9    25 1
    27    10    26 1
@<TRIPOS>SUBSTRUCTURE
     1 TSO         1 TEMP              0 ****  ****    0 ROOT
