@<TRIPOS>MOLECULE
TSO
   26    27     1     0     0
SMALL
bcc


@<TRIPOS>ATOM
      1 C2         -0.0450    0.5270   -0.0100 c2        1 TSO     -0.076200
      2 C3          1.2900    0.5840   -0.0320 c2        1 TSO     -0.259200
      3 C4          2.1380    0.1000    1.0980 c3        1 TSO      0.124300
      4 O4          3.1510    1.0560    1.4420 oh        1 TSO     -0.633800
      5 C6          0.0120    0.5330    2.4320 c3        1 TSO     -0.080400
      6 C7         -2.2000    0.7770    1.2610 c         1 TSO      0.921600
      7 O71        -2.6550    1.3410    0.2220 o         1 TSO     -0.859800
      8 O72        -2.8410    0.7420    2.3530 o         1 TSO     -0.859800
      9 C8         -0.9670   -1.4150    1.2440 c3        1 TSO     -0.062400
     10 C1'         0.2270   -2.2430    1.7180 c3        1 TSO      0.034100
     11 O1'         1.1670   -1.5860    2.5730 os        1 TSO     -0.425600
     12 C2'         0.9220   -3.0200    0.5730 c         1 TSO      0.900600
     13 O'L         2.1570   -2.8750    0.3370 o         1 TSO     -0.859800
     14 O'M         0.2040   -3.8510   -0.0620 o         1 TSO     -0.859800
     15 C5          1.3490   -0.1900    2.3930 c3        1 TSO      0.163100
     16 C1         -0.7960    0.1040    1.2110 c3        1 TSO     -0.139800
     17 H2         -0.6720    0.8140   -0.8690 ha        1 TSO      0.138000
     18 H3          1.8420    0.9220   -0.9200 ha        1 TSO      0.082000
     19 H4          2.6430   -0.8680    0.7820 h1        1 TSO      0.120700
     20 HA          3.5430    1.3370    0.6100 ho        1 TSO      0.372000
     21 H5          1.9890    0.1020    3.2750 h1        1 TSO      0.040700
     22 H61C       -0.5520    0.2630    3.3600 hc        1 TSO      0.044200
     23 H62C        0.1730    1.6390    2.4230 hc        1 TSO      0.044200
     24 H81C       -1.8310   -1.6270    1.9310 hc        1 TSO      0.051200
     25 H82C       -1.2510   -1.7790    0.2220 hc        1 TSO      0.051200
     26 H1'        -0.1760   -3.0480    2.4100 h1        1 TSO      0.027700
@<TRIPOS>BOND
     1    1    2 2   
     2    1   16 1   
     3    1   17 1   
     4    2    3 1   
     5    2   18 1   
     6    3    4 1   
     7    3   15 1   
     8    3   19 1   
     9    4   20 1   
    10    5   15 1   
    11    5   16 1   
    12    5   22 1   
    13    5   23 1   
    14    6    7 1   
    15    6    8 1   
    16    6   16 1   
    17    9   10 1   
    18    9   16 1   
    19    9   24 1   
    20    9   25 1   
    21   10   11 1   
    22   10   12 1   
    23   10   26 1   
    24   11   15 1   
    25   12   13 1   
    26   12   14 1   
    27   15   21 1   
@<TRIPOS>SUBSTRUCTURE
     1 TSO         1 TEMP              0 ****  ****    0 ROOT
