@<TRIPOS>MOLECULE
molecule
   34    35     1     0     0
SMALL
bcc


@<TRIPOS>ATOM
      1 P            0.0000     0.0000     0.0000 p5         1 TSP       1.150900
      2 OP1          1.4790     0.0000     0.0000 o          1 TSP      -0.908167
      3 OP2         -0.5360     0.0000     1.5180 o          1 TSP      -0.908167
      4 OP3         -0.5390    -1.3130    -0.7590 o          1 TSP      -0.908167
      5 O5'         -0.5360     1.3150    -0.7580 os         1 TSP      -0.530200
      6 C5'         -0.0300     1.2590    -2.0920 c3         1 TSP       0.165400
      7 C4'         -0.5050     2.4870    -2.8710 c3         1 TSP       0.155100
      8 O4'          0.0720     3.6940    -2.3250 os         1 TSP      -0.355600
      9 C3'          0.0290     2.4520    -4.3250 c3         1 TSP       0.029400
     10 S3'         -1.0740     1.4940    -5.4000 sh         1 TSP      -0.436900
     11 C2'          0.0140     3.9500    -4.7120 c3         1 TSP      -0.119400
     12 C1'          0.0110     4.6900    -3.3610 c3         1 TSP       0.301500
     13 N1           1.1790     5.5710    -3.2730 n          1 TSP      -0.352000
     14 C2           2.4140     5.0500    -3.3600 c          1 TSP       0.802500
     15 O2           2.5500     3.8510    -3.5090 o          1 TSP      -0.602500
     16 N3           3.5040     5.8360    -3.2830 ns         1 TSP      -0.562500
     17 C4           3.3700     7.1680    -3.1210 c          1 TSP       0.719700
     18 O4           4.3550     7.8810    -3.0520 o          1 TSP      -0.663500
     19 C5           2.0750     7.7300    -3.0240 cc         1 TSP      -0.319400
     20 C5M          1.8980     9.2140    -2.8390 c3         1 TSP      -0.003900
     21 C6           0.9990     6.9170    -3.1050 cd         1 TSP       0.060600
     22 H5'         -0.3930     0.3610    -2.5770 h1         1 TSP       0.062700
     23 H5''         1.0520     1.2440    -2.0660 h1         1 TSP       0.062700
     24 H4'         -1.5870     2.5510    -2.8680 h1         1 TSP       0.057700
     25 H3'          1.0390     2.0610    -4.3510 h1         1 TSP       0.106700
     26 HS3'        -0.3580     0.6320    -6.1120 hs         1 TSP       0.210800
     27 H2'          0.9020     4.2020    -5.2790 hc         1 TSP       0.053200
     28 H2''        -0.8830     4.1850    -5.2740 hc         1 TSP       0.053200
     29 H1'         -0.9000     5.2670    -3.2610 h2         1 TSP       0.055700
     30 HN3          4.4170     5.4300    -3.3470 hn         1 TSP       0.358500
     31 H71          2.3770     9.7390    -3.6560 hc         1 TSP       0.035700
     32 H72          2.3490     9.5170    -1.9010 hc         1 TSP       0.035700
     33 H73          0.8420     9.4530    -2.8250 hc         1 TSP       0.035700
     34 H6           0.0060     7.3130    -2.9300 h4         1 TSP       0.158000
@<TRIPOS>BOND
     1     1     2 1
     2     1     3 1
     3     1     4 1
     4     1     5 1
     5     5     6 1
     6     6     7 1
     7     6    22 1
     8     6    23 1
     9     7     8 1
    10     7     9 1
    11     7    24 1
    12     8    12 1
    13     9    10 1
    14     9    11 1
    15     9    25 1
    16    10    26 1
    17    11    12 1
    18    11    27 1
    19    11    28 1
    20    12    13 1
    21    12    29 1
    22    13    14 1
    23    13    21 1
    24    14    15 2
    25    14    16 1
    26    16    17 1
    27    16    30 1
    28    17    18 2
    29    17    19 1
    30    19    20 1
    31    19    21 2
    32    20    31 1
    33    20    32 1
    34    20    33 1
    35    21    34 1
@<TRIPOS>SUBSTRUCTURE
     1 TSP         1 TEMP              0 ****  ****    0 ROOT
