@<TRIPOS>MOLECULE
TSR
   24    25     1     0     0
SMALL
bcc


@<TRIPOS>ATOM
      1 O1           0.0000     0.0000     0.0000 o          1 TSR      -0.377100
      2 CA           1.2130     0.0000     0.0000 c          1 TSR       0.286100
      3 N            1.8860     0.0000     1.1670 nz         1 TSR       0.191600
      4 CB           1.9660     0.0020    -1.3050 c3         1 TSR       0.039800
      5 CG           0.9870     0.0030    -2.4510 cc         1 TSR      -0.237400
      6 CD1          0.5390    -1.0720    -3.1190 cd         1 TSR      -0.209100
      7 NE1         -0.3390    -0.6840    -4.0930 na         1 TSR       0.398600
      8 CE2         -0.4820     0.6870    -4.0750 ca         1 TSR      -0.227200
      9 CD2          0.3380     1.1750    -3.0410 ca         1 TSR      -0.076800
     10 CZ2         -1.2330     1.5810    -4.8300 ca         1 TSR      -0.075000
     11 CH2         -1.1620     2.9310    -4.5630 ca         1 TSR      -0.072000
     12 CZ3         -0.3470     3.4090    -3.5460 ca         1 TSR      -0.090000
     13 CE3          0.4000     2.5470    -2.7920 ca         1 TSR      -0.077000
     14 HN1          1.2450     0.1420     1.9220 hn         1 TSR       0.244467
     15 HN2          2.3510    -0.8790     1.2840 hn         1 TSR       0.244467
     16 HB1          2.5890    -0.8830    -1.3640 hc         1 TSR       0.049200
     17 HB2          2.5890     0.8860    -1.3620 hc         1 TSR       0.049200
     18 HD1          0.8310    -2.0960    -2.9170 h4         1 TSR       0.139000
     19 HE1         -0.8080    -1.3030    -4.7250 hn         1 TSR       0.127700
     20 HZ2         -1.8720     1.2170    -5.6250 ha         1 TSR       0.112000
     21 HH2         -1.7470     3.6260    -5.1520 ha         1 TSR       0.116000
     22 HZ3         -0.3020     4.4730    -3.3490 ha         1 TSR       0.112000
     23 HE3          1.0340     2.9270    -2.0000 ha         1 TSR       0.086000
     24 HN3          2.5650     0.7360     1.1610 hn         1 TSR       0.244467
@<TRIPOS>BOND
     1     1     2 2   
     2     2     3 1   
     3     2     4 1   
     4     3    14 1   
     5     3    15 1   
     6     3    24 1   
     7     4     5 1   
     8     4    16 1   
     9     4    17 1   
    10     5     6 2   
    11     5     9 1   
    12     6     7 1   
    13     6    18 1   
    14     7     8 1   
    15     7    19 1   
    16     8     9 ar  
    17     8    10 ar  
    18     9    13 ar  
    19    10    11 ar  
    20    10    20 1   
    21    11    12 ar  
    22    11    21 1   
    23    12    13 ar  
    24    12    22 1   
    25    13    23 1   
@<TRIPOS>SUBSTRUCTURE
     1 TSR         1 TEMP              0 ****  ****    0 ROOT
