@<TRIPOS>MOLECULE
molecule
   25    26     1     0     0
SMALL
bcc


@<TRIPOS>ATOM
      1 N1           0.0000     0.0000     0.0000 nz         1 TSS      -0.812600
      2 CA           1.4690     0.0000     0.0000 c3         1 TSS       0.087800
      3 CB           1.9790     0.0000     1.4430 c3         1 TSS      -0.010200
      4 CG           3.4870     0.0010     1.4420 cc         1 TSS      -0.219400
      5 CD1          4.2850    -1.0740     1.5360 cd         1 TSS      -0.053100
      6 NE1          5.5960    -0.6850     1.5010 na         1 TSS      -0.160400
      7 CE2          5.6750     0.6840     1.3810 ca         1 TSS      -0.033200
      8 CD2          4.3570     1.1740     1.3340 ca         1 TSS      -0.100800
      9 CZ2          6.7370     1.5790     1.3020 ca         1 TSS      -0.124000
     10 CH2          6.4880     2.9290     1.1840 ca         1 TSS      -0.095000
     11 CZ3          5.1850     3.4070     1.1430 ca         1 TSS      -0.128000
     12 CE3          4.1270     2.5460     1.2200 ca         1 TSS      -0.103000
     13 HN11        -0.3340    -0.8200     0.4670 hn         1 TSS       0.454133
     14 HN12        -0.3340     0.8150     0.4760 hn         1 TSS       0.454133
     15 HA1          1.8300     0.8840    -0.5110 hx         1 TSS       0.114700
     16 HA2          1.8300    -0.8850    -0.5110 hx         1 TSS       0.114700
     17 HB1          1.6180     0.8840     1.9540 hc         1 TSS       0.063200
     18 HB2          1.6190    -0.8850     1.9530 hc         1 TSS       0.063200
     19 HD1          3.9420    -2.0970     1.6270 h4         1 TSS       0.169000
     20 HE1          6.3810    -1.3040     1.5550 hn         1 TSS       0.315700
     21 HZ2          7.7570     1.2160     1.3340 ha         1 TSS       0.142000
     22 HH2          7.3170     3.6240     1.1220 ha         1 TSS       0.149000
     23 HZ3          5.0060     4.4710     1.0500 ha         1 TSS       0.142000
     24 HE3          3.1130     2.9260     1.1860 ha         1 TSS       0.115000
     25 H13         -0.3340    -0.0020    -0.9440 hn         1 TSS       0.454133
@<TRIPOS>BOND
     1     1     2 1
     2     1    13 1
     3     1    14 1
     4     2     3 1
     5     2    15 1
     6     2    16 1
     7     3     4 1
     8     3    17 1
     9     3    18 1
    10     4     5 2
    11     4     8 1
    12     5     6 1
    13     5    19 1
    14     6     7 1
    15     6    20 1
    16     7     8 ar
    17     7     9 ar
    18     8    12 ar
    19     9    10 ar
    20     9    21 1
    21    10    11 ar
    22    10    22 1
    23    11    12 ar
    24    11    23 1
    25    12    24 1
    26    25     1 1
@<TRIPOS>SUBSTRUCTURE
     1 TSS         1 TEMP              0 ****  ****    0 ROOT
