@<TRIPOS>MOLECULE
molecule
   18    18     1     0     0
SMALL
bcc


@<TRIPOS>ATOM
      1 S            0.0000     0.0000     0.0000 s6         1 TSU       1.326100
      2 O1           1.4210     0.0000     0.0000 o          1 TSU      -0.712533
      3 O2          -0.7780     0.0000     1.1890 o          1 TSU      -0.712533
      4 O3          -0.4290     1.2260    -0.7940 o          1 TSU      -0.712533
      5 C1          -0.4980    -1.4170    -0.9200 ca         1 TSU      -0.259500
      6 C2           0.3600    -1.9740    -1.8500 ca         1 TSU      -0.035500
      7 C3          -0.0300    -3.0860    -2.5720 ca         1 TSU      -0.168500
      8 C4          -1.2780    -3.6430    -2.3630 ca         1 TSU      -0.079300
      9 C5          -2.1360    -3.0870    -1.4320 ca         1 TSU      -0.168500
     10 C6          -1.7430    -1.9770    -0.7070 ca         1 TSU      -0.035500
     11 C7          -1.7040    -4.8550    -3.1500 c3         1 TSU      -0.044800
     12 H2           1.3390    -1.5380    -2.0130 ha         1 TSU       0.147000
     13 H3           0.6420    -3.5220    -3.3010 ha         1 TSU       0.108500
     14 H5          -3.1130    -3.5240    -1.2670 ha         1 TSU       0.108500
     15 H6          -2.4150    -1.5420     0.0230 ha         1 TSU       0.147000
     16 H71         -1.0320    -4.9960    -3.9880 hc         1 TSU       0.029700
     17 H72         -1.6730    -5.7290    -2.5110 hc         1 TSU       0.029700
     18 H73         -2.7130    -4.7110    -3.5170 hc         1 TSU       0.029700
@<TRIPOS>BOND
     1     1     2 1
     2     1     3 1
     3     1     4 1
     4     1     5 1
     5     5     6 ar
     6     5    10 ar
     7     6     7 ar
     8     6    12 1
     9     7     8 ar
    10     7    13 1
    11     8     9 ar
    12     8    11 1
    13     9    10 ar
    14     9    14 1
    15    10    15 1
    16    11    16 1
    17    11    17 1
    18    11    18 1
@<TRIPOS>SUBSTRUCTURE
     1 TSU         1 TEMP              0 ****  ****    0 ROOT
