@<TRIPOS>MOLECULE
TSU
   18    18     1     0     0
SMALL
bcc


@<TRIPOS>ATOM
      1 S          -0.0110    0.0710   -0.0210 s6        1 TSU      1.459100
      2 O1          1.3950   -0.0370    0.0970 o         1 TSU     -0.745867
      3 O2         -0.7050   -0.0210    1.2090 o         1 TSU     -0.745867
      4 O3         -0.4260    1.1620   -0.8200 o         1 TSU     -0.745867
      5 C1         -0.5000   -1.3740   -0.9260 ca        1 TSU     -0.257500
      6 C2          0.3620   -1.9610   -1.8510 ca        1 TSU     -0.042500
      7 C3         -0.0230   -3.0870   -2.5780 ca        1 TSU     -0.169000
      8 C4         -1.2890   -3.6490   -2.3840 ca        1 TSU     -0.082300
      9 C5         -2.1560   -3.0700   -1.4510 ca        1 TSU     -0.169000
     10 C6         -1.7580   -1.9440   -0.7310 ca        1 TSU     -0.042500
     11 C7         -1.7010   -4.8530   -3.1430 c3        1 TSU     -0.042800
     12 H2          1.3660   -1.5260   -1.9930 ha        1 TSU      0.143000
     13 H3          0.6680   -3.5360   -3.3050 ha        1 TSU      0.107000
     14 H5         -3.1510   -3.5050   -1.2880 ha        1 TSU      0.107000
     15 H6         -2.4350   -1.4950    0.0150 ha        1 TSU      0.143000
     16 H71        -1.1790   -4.9040   -4.1300 hc        1 TSU      0.028033
     17 H72        -1.4440   -5.7770   -2.5650 hc        1 TSU      0.028033
     18 H73        -2.8040   -4.8530   -3.3250 hc        1 TSU      0.028033
@<TRIPOS>BOND
     1    1    2 1   
     2    1    3 1   
     3    1    4 1   
     4    1    5 1   
     5    5    6 ar  
     6    5   10 ar  
     7    6    7 ar  
     8    6   12 1   
     9    7    8 ar  
    10    7   13 1   
    11    8    9 ar  
    12    8   11 1   
    13    9   10 ar  
    14    9   14 1   
    15   10   15 1   
    16   11   16 1   
    17   11   17 1   
    18   11   18 1   
@<TRIPOS>SUBSTRUCTURE
     1 TSU         1 TEMP              0 ****  ****    0 ROOT
