@<TRIPOS>MOLECULE
TSX
   54    56     1     0     0
SMALL
bcc


@<TRIPOS>ATOM
      1 O13         0.1010    0.7550    0.6540 o         1 TSX     -0.641500
      2 C5          1.0460    0.2600    0.0000 c         1 TSX      0.813500
      3 N4          1.9470   -0.6380    0.6320 n         1 TSX     -0.481400
      4 C31         1.6590   -1.0050    2.0110 c3        1 TSX      0.126200
      5 C32         0.5190   -1.9630    2.1670 c2        1 TSX     -0.193200
      6 C33         0.6480   -3.1540    2.7440 c2        1 TSX     -0.198000
      7 N6          1.1890    0.5930   -1.3720 n         1 TSX     -0.413300
      8 C41         0.3440    1.6120   -1.9610 c3        1 TSX      0.104000
      9 C42         0.9340    3.0230   -1.9410 c3        1 TSX     -0.104400
     10 C43        -0.0330    3.9880   -2.5940 c3        1 TSX     -0.077400
     11 C44         0.5130    5.3930   -2.5900 c3        1 TSX     -0.092100
     12 C7          2.2840    0.0830   -2.0580 cc        1 TSX      0.489200
     13 N12         2.6830    0.2890   -3.3850 nc        1 TSX     -0.692000
     14 C8          3.1840   -0.8260   -1.4140 cd        1 TSX     -0.356200
     15 C3          3.0420   -1.2340   -0.0300 c         1 TSX      0.764100
     16 O12         3.8130   -2.0160    0.5550 o         1 TSX     -0.626500
     17 N9          4.1380   -1.1740   -2.3670 na        1 TSX     -0.253900
     18 C11         3.8030   -0.4910   -3.5360 cd        1 TSX      0.459800
     19 C14         4.5960   -0.5820   -4.8030 c3        1 TSX     -0.063400
     20 C21         5.5880   -1.6900   -4.7930 ca        1 TSX     -0.144300
     21 C22         5.3530   -2.8640   -5.5140 ca        1 TSX     -0.096000
     22 C23         6.2830   -3.8980   -5.5330 ca        1 TSX     -0.172000
     23 C24         7.4940   -3.7790   -4.8170 ca        1 TSX      0.084600
     24 C25         7.7290   -2.5840   -4.0890 ca        1 TSX     -0.172000
     25 C26         6.7890   -1.5640   -4.0850 ca        1 TSX     -0.096000
     26 N           8.4730   -4.7800   -4.7860 n         1 TSX     -0.476100
     27 C           8.4620   -6.0050   -5.4460 c         1 TSX      0.667100
     28 O           7.5280   -6.3700   -6.1810 o         1 TSX     -0.582100
     29 C4          9.6680   -6.8870   -5.2180 c3        1 TSX     -0.179100
     30 H311        1.3990   -0.0570    2.5710 h1        1 TSX      0.080700
     31 H312        2.6040   -1.4380    2.4510 h1        1 TSX      0.080700
     32 H32        -0.4510   -1.5910    1.7940 ha        1 TSX      0.140000
     33 H331        1.6100   -3.5390    3.1100 ha        1 TSX      0.115000
     34 H332       -0.2070   -3.8260    2.8910 ha        1 TSX      0.115000
     35 H411       -0.6330    1.6130   -1.3960 h1        1 TSX      0.077200
     36 H412        0.1440    1.3100   -3.0290 h1        1 TSX      0.077200
     37 H421        1.9120    3.0400   -2.4880 hc        1 TSX      0.054200
     38 H422        1.1290    3.3410   -0.8830 hc        1 TSX      0.054200
     39 H431       -0.2310    3.6640   -3.6500 hc        1 TSX      0.041700
     40 H432       -1.0140    3.9640   -2.0490 hc        1 TSX      0.041700
     41 H441        1.4790    5.4420   -3.1480 hc        1 TSX      0.034033
     42 H442       -0.2120    6.0900   -3.0750 hc        1 TSX      0.034033
     43 H443        0.6940    5.7430   -1.5450 hc        1 TSX      0.034033
     44 H91         4.8800   -1.8160   -2.2390 hn        1 TSX      0.330700
     45 H141        3.8780   -0.7100   -5.6600 hc        1 TSX      0.084200
     46 H142        5.1240    0.4020   -4.9500 hc        1 TSX      0.084200
     47 H22         4.4150   -2.9800   -6.0810 ha        1 TSX      0.139500
     48 H23         6.0600   -4.8090   -6.1140 ha        1 TSX      0.157000
     49 H25         8.6630   -2.4500   -3.5210 ha        1 TSX      0.157000
     50 H26         6.9960   -0.6400   -3.5220 ha        1 TSX      0.139500
     51 HN1         9.2730   -4.5790   -4.2260 hn        1 TSX      0.316500
     52 H41         9.7690   -7.1420   -4.1350 hc        1 TSX      0.071033
     53 H42        10.6000   -6.3770   -5.5630 hc        1 TSX      0.071033
     54 H43         9.5330   -7.8300   -5.8020 hc        1 TSX      0.071033
@<TRIPOS>BOND
     1    1    2 2   
     2    2    3 1   
     3    2    7 1   
     4    3    4 1   
     5    3   15 1   
     6    4    5 1   
     7    4   30 1   
     8    4   31 1   
     9    5    6 2   
    10    5   32 1   
    11    6   33 1   
    12    6   34 1   
    13    7    8 1   
    14    7   12 1   
    15    8    9 1   
    16    8   35 1   
    17    8   36 1   
    18    9   10 1   
    19    9   37 1   
    20    9   38 1   
    21   10   11 1   
    22   10   39 1   
    23   10   40 1   
    24   11   41 1   
    25   11   42 1   
    26   11   43 1   
    27   12   13 1   
    28   12   14 2   
    29   13   18 2   
    30   14   15 1   
    31   14   17 1   
    32   15   16 2   
    33   17   18 1   
    34   17   44 1   
    35   18   19 1   
    36   19   20 1   
    37   19   45 1   
    38   19   46 1   
    39   20   21 ar  
    40   20   25 ar  
    41   21   22 ar  
    42   21   47 1   
    43   22   23 ar  
    44   22   48 1   
    45   23   24 ar  
    46   23   26 1   
    47   24   25 ar  
    48   24   49 1   
    49   25   50 1   
    50   26   27 1   
    51   26   51 1   
    52   27   28 2   
    53   27   29 1   
    54   29   52 1   
    55   29   53 1   
    56   29   54 1   
@<TRIPOS>SUBSTRUCTURE
     1 TSX         1 TEMP              0 ****  ****    0 ROOT
