@<TRIPOS>MOLECULE
molecule
   12    11     1     0     0
SMALL
bcc


@<TRIPOS>ATOM
      1 C            0.0000     0.0000     0.0000 cs         1 TSZ       0.155400
      2 N1           1.3470     0.0000     0.0000 nz         1 TSZ      -0.618400
      3 N2          -0.6730     0.0000     1.1680 ns         1 TSZ      -0.448300
      4 N3           0.0090    -0.0000     2.3500 nz         1 TSZ      -0.571600
      5 S           -0.8560     0.0060    -1.4820 s          1 TSZ       0.126600
      6 HN11         1.6810    -0.8170     0.4720 hn         1 TSZ       0.483133
      7 HN12         1.6810    -0.0000    -0.9440 hn         1 TSZ       0.483133
      8 HN2         -1.6740     0.0000     1.1680 hn         1 TSZ       0.457500
      9 HN31         0.5850     0.8170     2.4040 hn         1 TSZ       0.482800
     10 HN32         0.5840    -0.8170     2.4030 hn         1 TSZ       0.482800
     11 H13          1.6810     0.8020     0.4970 hn         1 TSZ       0.483133
     12 H33         -0.6410    -0.0340     3.1110 hn         1 TSZ       0.482800
@<TRIPOS>BOND
     1     1     2 1
     2     1     3 1
     3     1     5 2
     4     2     6 1
     5     2     7 1
     6     3     4 1
     7     3     8 1
     8     4     9 1
     9     4    10 1
    10    11     2 1
    11    12     4 1
@<TRIPOS>SUBSTRUCTURE
     1 TSZ         1 TEMP              0 ****  ****    0 ROOT
