@<TRIPOS>MOLECULE
TT1
   42    45     1     0     0
SMALL
bcc


@<TRIPOS>ATOM
      1 C26        -0.0260    0.2000    0.1440 ca        1 TT1     -0.104000
      2 C25         1.3590    0.0680    0.1560 ca        1 TT1     -0.131000
      3 C24         2.0170   -0.2740    1.3370 ca        1 TT1     -0.112000
      4 C23         1.2890   -0.4820    2.5050 ca        1 TT1     -0.128000
      5 C21        -0.1050   -0.3500    2.4930 ca        1 TT1      0.033400
      6 CL22       -0.9480   -0.6100    3.9470 cl        1 TT1     -0.083400
      7 C20        -0.7800   -0.0090    1.3090 ca        1 TT1     -0.082300
      8 C8         -2.2480    0.1610    1.2540 c3        1 TT1      0.025000
      9 S9         -2.9150   -1.4280    0.7990 ss        1 TT1     -0.224400
     10 C10        -4.5790   -1.1560    0.8260 cc        1 TT1      0.414800
     11 N19        -5.2420    0.0480    0.7620 nd        1 TT1     -0.354000
     12 N18        -6.5310   -0.1540    0.8300 nd        1 TT1     -0.332000
     13 C12        -6.7850   -1.5070    0.9330 cc        1 TT1      0.457000
     14 C13        -8.0910   -2.0980    1.0520 cc        1 TT1     -0.147600
     15 C17        -9.2620   -1.3550    1.0590 cd        1 TT1     -0.107000
     16 C16       -10.4160   -2.1830    1.2100 cd        1 TT1     -0.157000
     17 C15       -10.0790   -3.5140    1.3110 cc        1 TT1     -0.158100
     18 S14        -8.4300   -3.7460    1.2200 ss        1 TT1     -0.004800
     19 N11        -5.5410   -2.1790    0.9450 na        1 TT1     -0.299700
     20 C1         -5.2540   -3.5850    0.9960 c3        1 TT1      0.080600
     21 C2         -5.0790   -4.2540   -0.3370 ca        1 TT1     -0.124300
     22 C7         -3.8850   -4.0940   -1.0480 ca        1 TT1     -0.107500
     23 C6         -3.7030   -4.7490   -2.2650 ca        1 TT1     -0.130000
     24 C5         -4.7110   -5.5660   -2.7770 ca        1 TT1     -0.115000
     25 C4         -5.9040   -5.7240   -2.0720 ca        1 TT1     -0.130000
     26 C3         -6.0900   -5.0680   -0.8560 ca        1 TT1     -0.107500
     27 H26        -0.5440    0.4730   -0.7890 ha        1 TT1      0.145000
     28 H25         1.9340    0.2340   -0.7670 ha        1 TT1      0.140000
     29 H24         3.1120   -0.3790    1.3500 ha        1 TT1      0.140000
     30 H23         1.8070   -0.7500    3.4390 ha        1 TT1      0.150000
     31 H8         -2.6700    0.4960    2.2340 h1        1 TT1      0.097700
     32 H8A        -2.5350    0.9260    0.4890 h1        1 TT1      0.097700
     33 H17        -9.3100   -0.2660    0.9640 ha        1 TT1      0.178000
     34 H16       -11.4330   -1.7850    1.2390 ha        1 TT1      0.159000
     35 H15       -10.7800   -4.3390    1.4350 h4        1 TT1      0.173000
     36 H1         -4.2950   -3.7080    1.5890 h1        1 TT1      0.079200
     37 H1A        -6.0870   -4.0920    1.5710 h1        1 TT1      0.079200
     38 H7         -3.0890   -3.4420   -0.6470 ha        1 TT1      0.141500
     39 H6         -2.7630   -4.6180   -2.8220 ha        1 TT1      0.136500
     40 H5         -4.5670   -6.0820   -3.7380 ha        1 TT1      0.135000
     41 H4         -6.7020   -6.3640   -2.4760 ha        1 TT1      0.136500
     42 H3         -7.0380   -5.1860   -0.3060 ha        1 TT1      0.141500
@<TRIPOS>BOND
     1    1    2 ar  
     2    1    7 ar  
     3    1   27 1   
     4    2    3 ar  
     5    2   28 1   
     6    3    4 ar  
     7    3   29 1   
     8    4    5 ar  
     9    4   30 1   
    10    5    6 1   
    11    5    7 ar  
    12    7    8 1   
    13    8    9 1   
    14    8   31 1   
    15    8   32 1   
    16    9   10 1   
    17   10   11 2   
    18   10   19 1   
    19   11   12 1   
    20   12   13 2   
    21   13   14 1   
    22   13   19 1   
    23   14   15 2   
    24   14   18 1   
    25   15   16 1   
    26   15   33 1   
    27   16   17 2   
    28   16   34 1   
    29   17   18 1   
    30   17   35 1   
    31   19   20 1   
    32   20   21 1   
    33   20   36 1   
    34   20   37 1   
    35   21   22 ar  
    36   21   26 ar  
    37   22   23 ar  
    38   22   38 1   
    39   23   24 ar  
    40   23   39 1   
    41   24   25 ar  
    42   24   40 1   
    43   25   26 ar  
    44   25   41 1   
    45   26   42 1   
@<TRIPOS>SUBSTRUCTURE
     1 TT1         1 TEMP              0 ****  ****    0 ROOT
