@<TRIPOS>MOLECULE
molecule
   42    45     1     0     0
SMALL
bcc


@<TRIPOS>ATOM
      1 C26          0.0000     0.0000     0.0000 ca         1 TT1      -0.102000
      2 C25          1.3820     0.0000     0.0000 ca         1 TT1      -0.129000
      3 C24          2.0730     0.0000     1.1970 ca         1 TT1      -0.113000
      4 C23          1.3830    -0.0010     2.3940 ca         1 TT1      -0.122000
      5 C21         -0.0010    -0.0010     2.3950 ca         1 TT1       0.041400
      6 Cl22        -0.8690    -0.0020     3.8980 cl         1 TT1      -0.095400
      7 C20         -0.6920    -0.0010     1.1970 ca         1 TT1      -0.081300
      8 C8          -2.1990    -0.0000     1.1960 c3         1 TT1       0.051000
      9 S9          -2.8030    -1.7070     1.1960 ss         1 TT1      -0.275400
     10 C10         -4.5400    -1.4160     1.1950 cc         1 TT1       0.477800
     11 N19         -5.1350    -0.2450     1.1950 nd         1 TT1      -0.368000
     12 N18         -6.4110    -0.3960     1.1940 nd         1 TT1      -0.330000
     13 C12         -6.7120    -1.6750     1.1940 cc         1 TT1       0.449000
     14 C13         -8.0640    -2.2570     1.1940 cc         1 TT1      -0.066600
     15 C17         -9.1970    -1.5960     0.8730 cd         1 TT1      -0.109000
     16 C16        -10.3460    -2.3550     0.9450 cd         1 TT1      -0.156000
     17 C15        -10.1630    -3.6250     1.3190 cc         1 TT1      -0.066100
     18 S14         -8.4540    -3.9220     1.6020 ss         1 TT1      -0.169800
     19 N11         -5.5220    -2.3690     1.1890 na         1 TT1      -0.308700
     20 C1          -5.3440    -3.8230     1.1820 c3         1 TT1       0.094600
     21 C2          -5.1530    -4.2990    -0.2350 ca         1 TT1      -0.128300
     22 C7          -3.8790    -4.4750    -0.7400 ca         1 TT1      -0.104000
     23 C6          -3.7040    -4.9120    -2.0400 ca         1 TT1      -0.129500
     24 C5          -4.8040    -5.1710    -2.8360 ca         1 TT1      -0.114000
     25 C4          -6.0790    -4.9960    -2.3310 ca         1 TT1      -0.129500
     26 C3          -6.2530    -4.5630    -1.0300 ca         1 TT1      -0.104000
     27 H26         -0.5410     0.0000    -0.9380 ha         1 TT1       0.144000
     28 H25          1.9230     0.0010    -0.9380 ha         1 TT1       0.137000
     29 H24          3.1560     0.0000     1.1960 ha         1 TT1       0.138000
     30 H23          1.9250    -0.0010     3.3320 ha         1 TT1       0.147000
     31 H8          -2.5610     0.5110     2.0800 h1         1 TT1       0.094200
     32 H8A         -2.5600     0.5100     0.3110 h1         1 TT1       0.094200
     33 H17         -9.2030    -0.5530     0.5820 ha         1 TT1       0.172000
     34 H16        -11.3250    -1.9510     0.7160 ha         1 TT1       0.154000
     35 H15        -10.9500    -4.3610     1.4290 h4         1 TT1       0.174000
     36 H1          -6.2210    -4.2960     1.6070 h1         1 TT1       0.076700
     37 H1A         -4.4730    -4.0830     1.7710 h1         1 TT1       0.076700
     38 H7          -3.0160    -4.2730    -0.1160 ha         1 TT1       0.139500
     39 H6          -2.7050    -5.0500    -2.4350 ha         1 TT1       0.134000
     40 H5          -4.6660    -5.5120    -3.8550 ha         1 TT1       0.132000
     41 H4          -6.9410    -5.2010    -2.9540 ha         1 TT1       0.134000
     42 H3          -7.2530    -4.4260    -0.6340 ha         1 TT1       0.139500
@<TRIPOS>BOND
     1     1     2 ar
     2     1     7 ar
     3     2     3 ar
     4     3     4 ar
     5     4     5 ar
     6     5     6 1
     7     5     7 ar
     8     7     8 1
     9     8     9 1
    10     9    10 1
    11    10    11 2
    12    10    19 1
    13    11    12 1
    14    12    13 2
    15    13    14 1
    16    13    19 1
    17    14    15 2
    18    14    18 1
    19    15    16 1
    20    16    17 2
    21    17    18 1
    22    19    20 1
    23    20    21 1
    24    21    22 ar
    25    21    26 ar
    26    22    23 ar
    27    23    24 ar
    28    24    25 ar
    29    25    26 ar
    30     1    27 1
    31     2    28 1
    32     3    29 1
    33     4    30 1
    34     8    31 1
    35     8    32 1
    36    15    33 1
    37    16    34 1
    38    17    35 1
    39    20    36 1
    40    20    37 1
    41    22    38 1
    42    23    39 1
    43    24    40 1
    44    25    41 1
    45    26    42 1
@<TRIPOS>SUBSTRUCTURE
     1 TT1         1 TEMP              0 ****  ****    0 ROOT
