@<TRIPOS>MOLECULE
TT4
   22    23     1     0     0
SMALL
bcc


@<TRIPOS>ATOM
      1 CAF          0.0000     0.0000     0.0000 ca         1 TT4      -0.108000
      2 CAD          1.3810     0.0000     0.0000 ca         1 TT4      -0.084000
      3 CAC          2.0740     0.0000     1.1960 ca         1 TT4      -0.100000
      4 CAE          1.3870    -0.0010     2.3970 ca         1 TT4      -0.084000
      5 CAG          0.0070     0.0000     2.4040 ca         1 TT4      -0.108000
      6 CAK         -0.6930     0.0000     1.2040 ca         1 TT4      -0.127200
      7 NAM         -2.0930     0.0010     1.2080 na         1 TT4       0.434500
      8 NAI         -2.9360     0.6420     0.2850 nc         1 TT4      -0.734800
      9 CAJ         -4.1690     0.3890     0.6540 cd         1 TT4       0.714900
     10 NAA         -5.3180     0.8400     0.0040 nv         1 TT4      -0.575500
     11 NAH         -4.1470    -0.3740     1.7540 nd         1 TT4      -0.773000
     12 CAL         -2.9010    -0.6210     2.0970 cc         1 TT4       0.402400
     13 NAB         -2.4900    -1.3790     3.1780 nv         1 TT4      -0.531500
     14 H1          -0.5420    -0.0000    -0.9380 ha         1 TT4       0.123000
     15 H2           1.9220     0.0000    -0.9390 ha         1 TT4       0.107000
     16 H3           3.1570    -0.0000     1.1930 ha         1 TT4       0.106000
     17 H4           1.9330    -0.0010     3.3320 ha         1 TT4       0.107000
     18 H5          -0.5300     0.0000     3.3450 ha         1 TT4       0.123000
     19 H6          -5.5100     1.8210    -0.0490 hn         1 TT4       0.273300
     20 H7          -5.9490     0.1830    -0.4110 hn         1 TT4       0.273300
     21 H8          -1.5710    -1.7740     3.1910 hn         1 TT4       0.281300
     22 H9          -3.1290    -1.5730     3.9240 hn         1 TT4       0.281300
@<TRIPOS>BOND
     1     1     2 ar  
     2     1     6 ar  
     3     1    14 1   
     4     2     3 ar  
     5     2    15 1   
     6     3     4 ar  
     7     3    16 1   
     8     4     5 ar  
     9     4    17 1   
    10     5     6 ar  
    11     5    18 1   
    12     6     7 1   
    13     7     8 1   
    14     7    12 1   
    15     8     9 2   
    16     9    10 1   
    17     9    11 1   
    18    10    19 1   
    19    10    20 1   
    20    11    12 2   
    21    12    13 1   
    22    13    21 1   
    23    13    22 1   
@<TRIPOS>SUBSTRUCTURE
     1 TT4         1 TEMP              0 ****  ****    0 ROOT
