@<TRIPOS>MOLECULE
molecule
   22    23     1     0     0
SMALL
bcc


@<TRIPOS>ATOM
      1 CAF          0.0000     0.0000     0.0000 ca         1 TT4      -0.141500
      2 CAD          1.3810     0.0000     0.0000 ca         1 TT4      -0.112500
      3 CAC          2.0740     0.0000     1.1960 ca         1 TT4      -0.136000
      4 CAE          1.3870    -0.0010     2.3970 ca         1 TT4      -0.112500
      5 CAG          0.0070     0.0000     2.4040 ca         1 TT4      -0.141500
      6 CAK         -0.6930     0.0000     1.2040 ca         1 TT4       0.036800
      7 NAM         -2.0930     0.0010     1.2080 na         1 TT4      -0.022500
      8 NAI         -2.9360     0.6420     0.2850 nc         1 TT4      -0.576800
      9 CAJ         -4.1690     0.3890     0.6540 cd         1 TT4       0.849900
     10 NAA         -5.3180     0.8400     0.0040 nv         1 TT4      -1.033500
     11 NAH         -4.1470    -0.3740     1.7540 nd         1 TT4      -0.831000
     12 CAL         -2.9010    -0.6210     2.0970 cc         1 TT4       0.733400
     13 NAB         -2.4900    -1.3790     3.1780 nv         1 TT4      -1.012500
     14 H1          -0.5420    -0.0000    -0.9380 ha         1 TT4       0.149500
     15 H2           1.9220     0.0000    -0.9390 ha         1 TT4       0.136000
     16 H3           3.1570    -0.0000     1.1930 ha         1 TT4       0.134000
     17 H4           1.9330    -0.0010     3.3320 ha         1 TT4       0.136000
     18 H5          -0.5300     0.0000     3.3450 ha         1 TT4       0.149500
     19 H6          -5.5100     1.8210    -0.0490 hn         1 TT4       0.444300
     20 H7          -5.9490     0.1830    -0.4110 hn         1 TT4       0.444300
     21 H8          -1.5710    -1.7740     3.1910 hn         1 TT4       0.453800
     22 H9          -3.1290    -1.5730     3.9240 hn         1 TT4       0.453800
@<TRIPOS>BOND
     1    10     9 1
     2     9     8 2
     3     9    11 1
     4     8     7 1
     5     1     2 ar
     6     1     6 ar
     7     7     6 1
     8     7    12 1
     9    11    12 2
    10     2     3 ar
    11     6     5 ar
    12    12    13 1
    13     3     4 ar
    14     5     4 ar
    15     1    14 1
    16     2    15 1
    17     3    16 1
    18     4    17 1
    19     5    18 1
    20    10    19 1
    21    10    20 1
    22    13    21 1
    23    13    22 1
@<TRIPOS>SUBSTRUCTURE
     1 TT4         1 TEMP              0 ****  ****    0 ROOT
