@<TRIPOS>MOLECULE
TT8
   49    51     1     0     0
SMALL
bcc


@<TRIPOS>ATOM
      1 C            0.0000     0.0000     0.0000 c          1 TT8       0.955600
      2 N            1.9960     1.2000    -0.6920 nz         1 TT8       0.064400
      3 O           -0.6710    -1.1430     0.2080 o          1 TT8      -0.810300
      4 C1           8.4870    -8.4000     9.0510 c3         1 TT8       0.194100
      5 N1           9.0680    -5.6640     8.9630 nb         1 TT8      -0.735000
      6 C2           9.3850    -4.3820     8.9750 ca         1 TT8       0.688900
      7 N3           8.8850    -3.5220     8.1140 nb         1 TT8      -0.681000
      8 C4           8.0240    -3.9190     7.1820 ca         1 TT8       0.277800
      9 C5           7.6550    -5.2740     7.1280 ca         1 TT8      -0.244200
     10 C6           8.2160    -6.1540     8.0680 ca         1 TT8       0.601200
     11 N6           7.8910    -7.4990     8.0640 nu         1 TT8      -0.468900
     12 N7           6.7790    -5.4080     6.1020 nc         1 TT8      -0.493100
     13 C8           6.5930    -4.2500     5.5370 cd         1 TT8       0.245700
     14 N9           7.3390    -3.2990     6.1690 na         1 TT8       0.203000
     15 CA           1.5070     0.0000     0.0000 c3         1 TT8      -0.202500
     16 CB           2.0180     0.0000     1.4420 c3         1 TT8       0.000600
     17 SD           4.1470    -0.1270     3.1540 ss         1 TT8      -0.343200
     18 CG           3.5420    -0.1260     1.4440 c3         1 TT8       0.051700
     19 C1'          7.3980    -1.8760     5.8260 c3         1 TT8       0.160800
     20 C2'          8.6000    -1.5900     4.8910 c3         1 TT8       0.128100
     21 O2'          9.7900    -1.3550     5.6460 oh         1 TT8      -0.532800
     22 C3'          8.1460    -0.3000     4.1640 c3         1 TT8       0.120100
     23 O3'          8.7170     0.8530     4.7850 oh         1 TT8      -0.544800
     24 C4'          6.6130    -0.2960     4.3260 c3         1 TT8       0.184100
     25 O4'          6.2540    -1.4960     5.0310 os         1 TT8      -0.384600
     26 C5'          5.9440    -0.2800     2.9510 c3         1 TT8       0.069700
     27 OXT         -0.6040     1.0310    -0.1810 o          1 TT8      -0.810300
     28 HN           2.8280     0.9760    -1.2020 hn         1 TT8       0.213800
     29 HNA          2.1990     1.9140    -0.0200 hn         1 TT8       0.213800
     30 H1           8.2200    -8.0710    10.0480 h1         1 TT8       0.010700
     31 H1A          8.1180    -9.4060     8.8920 h1         1 TT8       0.010700
     32 H1B          9.5650    -8.3900     8.9450 h1         1 TT8       0.010700
     33 HN6          7.2430    -7.8550     7.3890 hn         1 TT8       0.305800
     34 HA           1.8680    -0.8840    -0.5110 hx         1 TT8       0.086700
     35 HB           1.5860    -0.8370     1.9780 hc         1 TT8       0.069200
     36 HBA          1.7310     0.9260     1.9270 hc         1 TT8       0.069200
     37 HG           3.9740     0.7110     0.9090 h1         1 TT8       0.019700
     38 HGA          3.8290    -1.0510     0.9590 h1         1 TT8       0.019700
     39 H1'          7.4580    -1.2650     6.7180 h2         1 TT8       0.074700
     40 H2'          8.7370    -2.3990     4.1850 h1         1 TT8       0.022700
     41 HO2'        10.5440    -1.5160     5.1030 ho         1 TT8       0.390000
     42 H3'          8.4130    -0.3450     3.1150 h1         1 TT8       0.009700
     43 HO3'         9.1720     1.3670     4.1380 ho         1 TT8       0.389000
     44 H4'          6.3070     0.5710     4.9000 h1         1 TT8       0.059700
     45 H5'          6.3150     0.5610     2.3780 h1         1 TT8       0.038200
     46 H5'A         6.1700    -1.2020     2.4290 h1         1 TT8       0.038200
     47 H8           5.9410    -4.0680     4.6920 h5         1 TT8       0.040800
     48 HN3          1.2920     1.5330    -1.3210 hn         1 TT8       0.213800
     49 H2          10.0870    -3.9440     9.6750 h5         1 TT8      -0.003900
@<TRIPOS>BOND
     1     1     3 1   
     2     1    15 1   
     3     1    27 1   
     4     2    15 1   
     5     2    28 1   
     6     2    29 1   
     7     2    48 1   
     8     4    11 1   
     9     4    30 1   
    10     4    31 1   
    11     4    32 1   
    12     5     6 ar  
    13     5    10 ar  
    14     6     7 ar  
    15     6    49 1   
    16     7     8 ar  
    17     8     9 ar  
    18     8    14 1   
    19     9    10 ar  
    20     9    12 1   
    21    10    11 1   
    22    11    33 1   
    23    12    13 2   
    24    13    14 1   
    25    13    47 1   
    26    14    19 1   
    27    15    16 1   
    28    15    34 1   
    29    16    18 1   
    30    16    35 1   
    31    16    36 1   
    32    17    18 1   
    33    17    26 1   
    34    18    37 1   
    35    18    38 1   
    36    19    20 1   
    37    19    25 1   
    38    19    39 1   
    39    20    21 1   
    40    20    22 1   
    41    20    40 1   
    42    21    41 1   
    43    22    23 1   
    44    22    24 1   
    45    22    42 1   
    46    23    43 1   
    47    24    25 1   
    48    24    26 1   
    49    24    44 1   
    50    26    45 1   
    51    26    46 1   
@<TRIPOS>SUBSTRUCTURE
     1 TT8         1 TEMP              0 ****  ****    0 ROOT
