@<TRIPOS>MOLECULE
TTB
   53    55     1     0     0
SMALL
bcc


@<TRIPOS>ATOM
      1 C          -0.0430    0.6730   -0.2090 c3        1 TTB     -0.049900
      2 C2          1.3900    0.3380   -0.0210 ce        1 TTB     -0.110400
      3 C3          1.9520    0.1150    1.1850 cf        1 TTB     -0.053200
      4 C4          1.3050    0.1750    2.4820 ca        1 TTB     -0.109800
      5 C5          0.3730    1.1690    2.8120 ca        1 TTB     -0.140000
      6 C6         -0.2060    1.2020    4.0780 ca        1 TTB     -0.115500
      7 C7          0.1290    0.2450    5.0410 ca        1 TTB     -0.108600
      8 C8         -0.5110    0.2800    6.4210 c         1 TTB      0.906200
      9 O          -1.3510    1.1920    6.6600 o         1 TTB     -0.828300
     10 O1         -0.1670   -0.6060    7.2540 o         1 TTB     -0.828300
     11 C9          1.0650   -0.7430    4.7170 ca        1 TTB     -0.115500
     12 C10         1.6540   -0.7760    3.4570 ca        1 TTB     -0.140000
     13 C11         2.1920    0.2510   -1.2440 ca        1 TTB     -0.024800
     14 C12         3.1870   -0.7260   -1.3910 ca        1 TTB     -0.130000
     15 C13         3.9250   -0.7990   -2.5640 ca        1 TTB     -0.131000
     16 C14         3.7040    0.0900   -3.6270 ca        1 TTB     -0.075300
     17 C15         2.7320    1.0930   -3.4780 ca        1 TTB     -0.062300
     18 C16         1.9780    1.1460   -2.2980 ca        1 TTB     -0.128000
     19 C17         2.4530    2.1210   -4.5430 c3        1 TTB     -0.003700
     20 C18         1.1070    1.8170   -5.1950 c3        1 TTB     -0.084100
     21 C19         2.3930    3.5190   -3.9280 c3        1 TTB     -0.084100
     22 C20         3.5530    2.1350   -5.6050 c3        1 TTB     -0.068400
     23 C21         3.9560    0.7470   -6.0320 c3        1 TTB     -0.067400
     24 C22         4.5300   -0.0720   -4.8750 c3        1 TTB     -0.001700
     25 C23         5.9640    0.3670   -4.5910 c3        1 TTB     -0.083100
     26 C24         4.5470   -1.5360   -5.3150 c3        1 TTB     -0.083100
     27 H1         -0.6570    0.2710    0.6350 hc        1 TTB      0.041033
     28 H2         -0.1820    1.7840   -0.2460 hc        1 TTB      0.041033
     29 H3A        -0.4270    0.2420   -1.1670 hc        1 TTB      0.041033
     30 H3          3.0240   -0.1590    1.2320 ha        1 TTB      0.113000
     31 H5          0.1110    1.9370    2.0700 ha        1 TTB      0.108500
     32 H6         -0.9380    1.9800    4.3500 ha        1 TTB      0.152500
     33 H9          1.3220   -1.4880    5.4870 ha        1 TTB      0.152500
     34 H10         2.3920   -1.5530    3.2140 ha        1 TTB      0.108500
     35 H12         3.3750   -1.4420   -0.5760 ha        1 TTB      0.136000
     36 H13         4.7010   -1.5740   -2.6590 ha        1 TTB      0.123000
     37 H16         1.1960    1.9130   -2.1880 ha        1 TTB      0.134000
     38 H181        1.1310    0.8230   -5.7010 hc        1 TTB      0.035533
     39 H182        0.3010    1.8000   -4.4220 hc        1 TTB      0.035533
     40 H183        0.8620    2.6000   -5.9510 hc        1 TTB      0.035533
     41 H191        2.3860    4.2880   -4.7380 hc        1 TTB      0.035533
     42 H192        1.4670    3.6480   -3.3180 hc        1 TTB      0.035533
     43 H193        3.2790    3.6930   -3.2730 hc        1 TTB      0.035533
     44 H201        4.4470    2.6770   -5.1970 hc        1 TTB      0.039200
     45 H202        3.1910    2.7110   -6.4970 hc        1 TTB      0.039200
     46 H211        3.0640    0.2100   -6.4530 hc        1 TTB      0.038200
     47 H212        4.7230    0.8130   -6.8480 hc        1 TTB      0.038200
     48 H231        5.9960    1.4480   -4.3160 hc        1 TTB      0.034033
     49 H232        6.6000    0.2060   -5.4940 hc        1 TTB      0.034033
     50 H233        6.3860   -0.2250   -3.7430 hc        1 TTB      0.034033
     51 H241        4.9920   -1.6190   -6.3360 hc        1 TTB      0.034033
     52 H242        3.5100   -1.9460   -5.3400 hc        1 TTB      0.034033
     53 H243        5.1590   -2.1550   -4.6170 hc        1 TTB      0.034033
@<TRIPOS>BOND
     1    1    2 1   
     2    1   27 1   
     3    1   28 1   
     4    1   29 1   
     5    2    3 2   
     6    2   13 1   
     7    3    4 1   
     8    3   30 1   
     9    4    5 ar  
    10    4   12 ar  
    11    5    6 ar  
    12    5   31 1   
    13    6    7 ar  
    14    6   32 1   
    15    7    8 1   
    16    7   11 ar  
    17    8    9 1   
    18    8   10 1   
    19   11   12 ar  
    20   11   33 1   
    21   12   34 1   
    22   13   14 ar  
    23   13   18 ar  
    24   14   15 ar  
    25   14   35 1   
    26   15   16 ar  
    27   15   36 1   
    28   16   17 ar  
    29   16   24 1   
    30   17   18 ar  
    31   17   19 1   
    32   18   37 1   
    33   19   20 1   
    34   19   21 1   
    35   19   22 1   
    36   20   38 1   
    37   20   39 1   
    38   20   40 1   
    39   21   41 1   
    40   21   42 1   
    41   21   43 1   
    42   22   23 1   
    43   22   44 1   
    44   22   45 1   
    45   23   24 1   
    46   23   46 1   
    47   23   47 1   
    48   24   25 1   
    49   24   26 1   
    50   25   48 1   
    51   25   49 1   
    52   25   50 1   
    53   26   51 1   
    54   26   52 1   
    55   26   53 1   
@<TRIPOS>SUBSTRUCTURE
     1 TTB         1 TEMP              0 ****  ****    0 ROOT
