@<TRIPOS>MOLECULE
molecule
   53    55     1     0     0
SMALL
bcc


@<TRIPOS>ATOM
      1 C            0.0000     0.0000     0.0000 c3         1 TTB      -0.098900
      2 C2           1.5070     0.0000     0.0000 ce         1 TTB      -0.013400
      3 C3           2.1790     0.0000     1.1640 cf         1 TTB      -0.380200
      4 C4           1.4540     0.1840     2.4310 ca         1 TTB      -0.144800
      5 C5           0.3880     1.0850     2.5030 ca         1 TTB      -0.131500
      6 C6          -0.2880     1.2530     3.6790 ca         1 TTB      -0.121000
      7 C7           0.0940     0.5300     4.8130 ca         1 TTB      -0.059600
      8 C8          -0.6310     0.7150     6.0850 c          1 TTB       0.875200
      9 O           -1.6620     1.5800     6.1520 o          1 TTB      -0.827300
     10 O1          -0.2990     0.0880     7.0700 o          1 TTB      -0.827300
     11 C9           1.1650    -0.3670     4.7440 ca         1 TTB      -0.121000
     12 C10          1.8370    -0.5390     3.5670 ca         1 TTB      -0.131500
     13 C11          2.2430     0.0010    -1.2750 ca         1 TTB      -0.016800
     14 C12          3.1180    -1.0440    -1.5850 ca         1 TTB      -0.100000
     15 C13          3.8000    -1.0290    -2.7790 ca         1 TTB      -0.136000
     16 C14          3.6310     0.0160    -3.6820 ca         1 TTB      -0.076300
     17 C15          2.7650     1.0460    -3.3860 ca         1 TTB      -0.067300
     18 C16          2.0700     1.0400    -2.1880 ca         1 TTB      -0.121000
     19 C17          2.5230     2.1970    -4.3280 c3         1 TTB      -0.015700
     20 C18          1.1900     1.9890    -5.0480 c3         1 TTB      -0.081100
     21 C19          2.4670     3.4990    -3.5280 c3         1 TTB      -0.081100
     22 C20          3.6440     2.2890    -5.3610 c3         1 TTB      -0.071400
     23 C21          3.8250     0.9090    -6.0020 c3         1 TTB      -0.070400
     24 C22          4.4250    -0.0320    -4.9610 c3         1 TTB      -0.016700
     25 C23          5.8680     0.3890    -4.6750 c3         1 TTB      -0.080100
     26 C24          4.4180    -1.4600    -5.5080 c3         1 TTB      -0.080100
     27 H1          -0.3610     1.0210     0.0230 hc         1 TTB       0.045033
     28 H2          -0.3610    -0.4910    -0.8960 hc         1 TTB       0.045033
     29 H3A         -0.3610    -0.5310     0.8730 hc         1 TTB       0.045033
     30 H3           1.7140    -0.8430     1.6620 ha         1 TTB       0.320000
     31 H5           0.0920     1.6450     1.6250 ha         1 TTB       0.123000
     32 H6          -1.1140     1.9510     3.7350 ha         1 TTB       0.155500
     33 H9           1.4600    -0.9270     5.6230 ha         1 TTB       0.155500
     34 H10          2.6660    -1.2340     3.5130 ha         1 TTB       0.123000
     35 H12          3.1710    -1.9150    -0.9420 ha         1 TTB       0.135000
     36 H13          4.4780    -1.8390    -3.0190 ha         1 TTB       0.124000
     37 H16          1.3860     1.8480    -1.9590 ha         1 TTB       0.134000
     38 H181         1.2120     2.4990    -6.0030 hc         1 TTB       0.036033
     39 H182         1.0270     0.9300    -5.2070 hc         1 TTB       0.036033
     40 H183         0.3860     2.3910    -4.4420 hc         1 TTB       0.036033
     41 H191         3.2550     3.5010    -2.7840 hc         1 TTB       0.036033
     42 H192         1.5060     3.5790    -3.0350 hc         1 TTB       0.036033
     43 H193         2.6010     4.3400    -4.1970 hc         1 TTB       0.036033
     44 H201         4.5640     2.5870    -4.8740 hc         1 TTB       0.042700
     45 H202         3.3780     3.0110    -6.1230 hc         1 TTB       0.042700
     46 H211         2.8560     0.5300    -6.3030 hc         1 TTB       0.043200
     47 H212         4.5110     0.9960    -6.8360 hc         1 TTB       0.043200
     48 H231         6.4250    -0.4620    -4.3000 hc         1 TTB       0.034367
     49 H232         6.3280     0.7470    -5.5880 hc         1 TTB       0.034367
     50 H233         5.8740     1.1790    -3.9340 hc         1 TTB       0.034367
     51 H241         3.4120    -1.8590    -5.4640 hc         1 TTB       0.034367
     52 H242         4.7600    -1.4550    -6.5360 hc         1 TTB       0.034367
     53 H243         5.0780    -2.0790    -4.9110 hc         1 TTB       0.034367
@<TRIPOS>BOND
     1     1     2 1
     2     1    27 1
     3     1    28 1
     4     1    29 1
     5     2     3 2
     6     2    13 1
     7     3     4 1
     8     3    30 1
     9     4     5 ar
    10     4    12 ar
    11     5     6 ar
    12     5    31 1
    13     6     7 ar
    14     6    32 1
    15     7     8 1
    16     7    11 ar
    17     8     9 1
    18     8    10 1
    19    11    12 ar
    20    11    33 1
    21    12    34 1
    22    13    14 ar
    23    13    18 ar
    24    14    15 ar
    25    14    35 1
    26    15    16 ar
    27    15    36 1
    28    16    17 ar
    29    16    24 1
    30    17    18 ar
    31    17    19 1
    32    18    37 1
    33    19    20 1
    34    19    21 1
    35    19    22 1
    36    20    38 1
    37    20    39 1
    38    20    40 1
    39    21    41 1
    40    21    42 1
    41    21    43 1
    42    22    23 1
    43    22    44 1
    44    22    45 1
    45    23    24 1
    46    23    46 1
    47    23    47 1
    48    24    25 1
    49    24    26 1
    50    25    48 1
    51    25    49 1
    52    25    50 1
    53    26    51 1
    54    26    52 1
    55    26    53 1
@<TRIPOS>SUBSTRUCTURE
     1 TTB         1 TEMP              0 ****  ****    0 ROOT
