@<TRIPOS>MOLECULE
TTC
   55    59     1     0     0
SMALL
bcc


@<TRIPOS>ATOM
      1 C25         1.3870    0.5050   -0.1890 c3        1 TTC     -0.095400
      2 C31         1.8980    1.6640    0.6260 c3        1 TTC     -0.111100
      3 C21        -0.0690    0.1450    0.1530 c3        1 TTC      0.121000
      4 O24        -0.2140   -0.0960    1.5450 oh        1 TTC     -0.580800
      5 C16        -0.4740   -1.1120   -0.5730 cc        1 TTC      0.004800
      6 C20        -0.9880    1.2930   -0.2650 c         1 TTC      0.687600
      7 C15        -1.0000   -1.0000   -1.8290 cd        1 TTC     -0.210400
      8 C17        -0.3130   -2.3930    0.0520 cc        1 TTC     -0.112000
      9 O23        -1.3090    2.2280    0.4690 o         1 TTC     -0.560500
     10 O22        -1.5450    1.3530   -1.5110 os        1 TTC     -0.384900
     11 C14        -1.4000   -2.1820   -2.6110 c         1 TTC      0.716700
     12 C19        -1.2070    0.3320   -2.4560 c3        1 TTC      0.177600
     13 C13        -0.6910   -3.4960   -0.6590 cd        1 TTC     -0.051200
     14 O18        -1.8760   -2.1600   -3.7590 o         1 TTC     -0.618500
     15 N12        -1.2000   -3.4120   -1.9690 n         1 TTC     -0.365000
     16 C9         -0.6780   -4.9260   -0.2690 ca        1 TTC      0.474100
     17 C11        -1.5710   -4.7210   -2.5010 c3        1 TTC      0.139300
     18 C8         -1.2250   -5.6840   -1.3950 ca        1 TTC     -0.168600
     19 N10        -0.2680   -5.4660    0.8590 nb        1 TTC     -0.595000
     20 C7         -1.3370   -7.0350   -1.2960 ca        1 TTC     -0.112000
     21 C5         -0.3850   -6.8460    0.9630 ca        1 TTC      0.366600
     22 C6         -0.9200   -7.6700   -0.0800 ca        1 TTC     -0.079300
     23 C4          0.0550   -7.4540    2.1840 ca        1 TTC     -0.068300
     24 C1         -1.0240   -9.0720    0.1290 ca        1 TTC     -0.208300
     25 C3         -0.0240   -8.8120    2.3580 ca        1 TTC     -0.199000
     26 C2         -0.5580   -9.6190    1.3260 ca        1 TTC      0.164100
     27 C27        -1.6920   -9.9850   -0.8400 c3        1 TTC      0.192100
     28 N28        -0.7160  -10.9420   -1.4860 n4        1 TTC     -0.684400
     29 C29        -1.4380  -12.0530   -2.1530 c3        1 TTC      0.082600
     30 C30         0.1750  -10.2390   -2.4410 c3        1 TTC      0.082600
     31 O26        -0.6250  -10.9890    1.4420 oh        1 TTC     -0.542100
     32 H251        1.4430    0.7440   -1.2830 hc        1 TTC      0.061200
     33 H252        2.0210   -0.4000    0.0030 hc        1 TTC      0.061200
     34 H311        1.2030    2.5380    0.5570 hc        1 TTC      0.053033
     35 H312        1.9970    1.3770    1.7010 hc        1 TTC      0.053033
     36 H313        2.9030    1.9770    0.2520 hc        1 TTC      0.053033
     37 H241       -0.1890    0.7680    1.9860 ho        1 TTC      0.441000
     38 H171        0.0790   -2.4580    1.0780 ha        1 TTC      0.195000
     39 H191       -0.2760    0.6560   -2.9990 h1        1 TTC      0.093700
     40 H192       -2.0800    0.3250   -3.1690 h1        1 TTC      0.093700
     41 H111       -2.6690   -4.7410   -2.7480 h1        1 TTC      0.093700
     42 H112       -0.9860   -4.9310   -3.4400 h1        1 TTC      0.093700
     43 H71        -1.7400   -7.6270   -2.1300 ha        1 TTC      0.134000
     44 H41         0.4600   -6.8110    2.9870 ha        1 TTC      0.183000
     45 H31         0.3180   -9.2820    3.2940 ha        1 TTC      0.166000
     46 H271       -2.4430  -10.6210   -0.2810 hx        1 TTC      0.106700
     47 H272       -2.2270   -9.4350   -1.6610 hx        1 TTC      0.106700
     48 H291       -2.0260  -12.6280   -1.3880 hx        1 TTC      0.103200
     49 H292       -2.1360  -11.6380   -2.9280 hx        1 TTC      0.103200
     50 H293       -0.6950  -12.7370   -2.6460 hx        1 TTC      0.103200
     51 H301        0.6480   -9.3610   -1.9230 hx        1 TTC      0.103200
     52 H302       -0.4240   -9.8760   -3.3180 hx        1 TTC      0.103200
     53 H303        0.9720  -10.9460   -2.7980 hx        1 TTC      0.103200
     54 H261       -0.4270  -11.2350    2.3610 ho        1 TTC      0.462000
     55 H281       -0.1350  -11.3380   -0.7280 hn        1 TTC      0.465800
@<TRIPOS>BOND
     1    1    2 1   
     2    1    3 1   
     3    1   32 1   
     4    1   33 1   
     5    2   34 1   
     6    2   35 1   
     7    2   36 1   
     8    3    4 1   
     9    3    5 1   
    10    3    6 1   
    11    4   37 1   
    12    5    7 2   
    13    5    8 1   
    14    6    9 2   
    15    6   10 1   
    16    7   11 1   
    17    7   12 1   
    18    8   13 2   
    19    8   38 1   
    20   10   12 1   
    21   11   14 2   
    22   11   15 1   
    23   12   39 1   
    24   12   40 1   
    25   13   15 1   
    26   13   16 1   
    27   15   17 1   
    28   16   18 ar  
    29   16   19 ar  
    30   17   18 1   
    31   17   41 1   
    32   17   42 1   
    33   18   20 ar  
    34   19   21 ar  
    35   20   22 ar  
    36   20   43 1   
    37   21   22 ar  
    38   21   23 ar  
    39   22   24 ar  
    40   23   25 ar  
    41   23   44 1   
    42   24   26 ar  
    43   24   27 1   
    44   25   26 ar  
    45   25   45 1   
    46   26   31 1   
    47   27   28 1   
    48   27   46 1   
    49   27   47 1   
    50   28   29 1   
    51   28   30 1   
    52   28   55 1   
    53   29   48 1   
    54   29   49 1   
    55   29   50 1   
    56   30   51 1   
    57   30   52 1   
    58   30   53 1   
    59   31   54 1   
@<TRIPOS>SUBSTRUCTURE
     1 TTC         1 TEMP              0 ****  ****    0 ROOT
