@<TRIPOS>MOLECULE
TTF
   19    19     1     0     0
SMALL
bcc


@<TRIPOS>ATOM
      1 C1          0.1410   -0.4470    0.0780 cc        1 TTF     -0.171000
      2 C2          1.4070    0.1960   -0.0290 cc        1 TTF     -0.068000
      3 C3          2.0620    0.2490    1.1960 cd        1 TTF     -0.233700
      4 S1          1.1350   -0.4680    2.4020 ss        1 TTF      0.060200
      5 C4         -0.1120   -0.8520    1.3750 cd        1 TTF     -0.143100
      6 C5          3.3720    0.8510    1.3810 c         1 TTF      0.626700
      7 O1          3.9780    1.4390    0.4810 o         1 TTF     -0.504100
      8 C6          3.9670    0.7580    2.7690 c3        1 TTF     -0.286400
      9 C7          5.0190   -0.2900    2.8970 c         1 TTF      0.559100
     10 C8          5.6810   -0.3080    4.3230 c3        1 TTF      0.522900
     11 O2          5.3900   -1.0920    2.0540 o         1 TTF     -0.424100
     12 F1          4.7800   -0.5550    5.3270 f         1 TTF     -0.225633
     13 F2          6.2720    0.8820    4.6600 f         1 TTF     -0.225633
     14 F3          6.6570   -1.2530    4.4740 f         1 TTF     -0.225633
     15 H1         -0.5330   -0.5940   -0.7700 ha        1 TTF      0.164000
     16 H2          1.8170    0.5990   -0.9610 ha        1 TTF      0.176000
     17 H4         -1.0150   -1.3650    1.7070 h4        1 TTF      0.179000
     18 H61         4.4340    1.7520    3.0260 hc        1 TTF      0.110200
     19 H62         3.1700    0.5510    3.5370 hc        1 TTF      0.110200
@<TRIPOS>BOND
     1    1    2 1   
     2    1    5 2   
     3    1   15 1   
     4    2    3 2   
     5    2   16 1   
     6    3    4 1   
     7    3    6 1   
     8    4    5 1   
     9    5   17 1   
    10    6    7 2   
    11    6    8 1   
    12    8    9 1   
    13    8   18 1   
    14    8   19 1   
    15    9   10 1   
    16    9   11 2   
    17   10   12 1   
    18   10   13 1   
    19   10   14 1   
@<TRIPOS>SUBSTRUCTURE
     1 TTF         1 TEMP              0 ****  ****    0 ROOT
