@<TRIPOS>MOLECULE
molecule
   19    19     1     0     0
SMALL
bcc


@<TRIPOS>ATOM
      1 C1           0.0000     0.0000     0.0000 cc         1 TTF      -0.203000
      2 C2           1.3700     0.0000     0.0000 cc         1 TTF      -0.074000
      3 C3           2.0020     0.0000     1.2400 cd         1 TTF      -0.133700
      4 S1           0.6110     0.0140     2.3590 ss         1 TTF      -0.131800
      5 C4          -0.6660     0.0110     1.1870 cd         1 TTF      -0.036100
      6 C5           3.3830    -0.0030     1.5350 c          1 TTF       0.614700
      7 O1           4.1970    -0.0130     0.6340 o          1 TTF      -0.481100
      8 C6           3.8460     0.0050     2.9700 c3         1 TTF      -0.274400
      9 C7           5.3530    -0.0010     3.0100 c          1 TTF       0.512100
     10 C8           6.0700     0.0050     4.3350 c3         1 TTF       0.525900
     11 O2           5.9850    -0.0100     1.9820 o          1 TTF      -0.396100
     12 F1           5.7080    -1.1310     5.0670 f          1 TTF      -0.213300
     13 F2           5.7170     1.1540     5.0520 f          1 TTF      -0.213300
     14 F3           7.4520    -0.0030     4.1170 f          1 TTF      -0.213300
     15 H1          -0.5470    -0.0020    -0.9350 ha         1 TTF       0.152000
     16 H2           1.9360    -0.0080    -0.9240 ha         1 TTF       0.168000
     17 H4          -1.7360     0.0150     1.3580 h4         1 TTF       0.193000
     18 H61          3.4670    -0.8740     3.4760 hc         1 TTF       0.102700
     19 H62          3.4740     0.8950     3.4640 hc         1 TTF       0.102700
@<TRIPOS>BOND
     1     1     2 1
     2     1     5 2
     3     1    15 1
     4     2     3 2
     5     2    16 1
     6     3     4 1
     7     3     6 1
     8     4     5 1
     9     5    17 1
    10     6     7 2
    11     6     8 1
    12     8     9 1
    13     8    18 1
    14     8    19 1
    15     9    10 1
    16     9    11 2
    17    10    12 1
    18    10    13 1
    19    10    14 1
@<TRIPOS>SUBSTRUCTURE
     1 TTF         1 TEMP              0 ****  ****    0 ROOT
