@<TRIPOS>MOLECULE
TTG
   57    60     1     0     0
SMALL
bcc


@<TRIPOS>ATOM
      1 C25         1.4650   -0.1150    0.5980 c3        1 TTG     -0.076400
      2 C31         1.9990    1.1450    1.2320 c3        1 TTG     -0.081100
      3 C21         0.0920    0.1260   -0.0440 c3        1 TTG      0.033000
      4 O24        -0.7050    0.8140    0.9140 oh        1 TTG     -0.572800
      5 C16        -0.5680   -1.1380   -0.5390 cc        1 TTG     -0.018200
      6 C20         0.2640    1.0780   -1.3080 c         1 TTG      0.936600
      7 C15        -1.8590   -1.1850   -1.0060 cd        1 TTG     -0.155400
      8 C17         0.2530   -2.3260   -0.6170 cc        1 TTG     -0.061000
      9 O23         1.3020    0.9120   -1.9960 o         1 TTG     -0.803800
     10 O22        -0.6670    1.8880   -1.5460 o         1 TTG     -0.803800
     11 C14        -2.4480   -2.4470   -1.5160 c         1 TTG      0.698700
     12 C19        -2.7800   -0.0120   -1.2190 c3        1 TTG      0.181600
     13 C13        -0.2740   -3.4840   -1.1030 cd        1 TTG     -0.133200
     14 O18        -3.6030   -2.5890   -1.9670 o         1 TTG     -0.653500
     15 N12        -1.6330   -3.5860   -1.4670 n         1 TTG     -0.373000
     16 C9          0.3840   -4.7660   -1.4150 ca        1 TTG      0.510100
     17 C11        -1.9340   -4.8730   -2.0820 c3        1 TTG      0.139300
     18 C8         -0.6240   -5.6160   -2.0620 ca        1 TTG     -0.157600
     19 N10         1.6350   -5.1290   -1.2130 nb        1 TTG     -0.621000
     20 C7         -0.2650   -6.8400   -2.5280 ca        1 TTG     -0.138000
     21 C5          2.0000   -6.3830   -1.6830 ca        1 TTG      0.379600
     22 C6          1.0950   -7.2640   -2.3590 ca        1 TTG     -0.095300
     23 C4          3.3590   -6.7920   -1.4920 ca        1 TTG     -0.071300
     24 C1          1.5730   -8.5080   -2.8480 ca        1 TTG     -0.207300
     25 C3          3.8110   -7.9900   -1.9880 ca        1 TTG     -0.207000
     26 C2          2.9190   -8.8370   -2.6840 ca        1 TTG      0.144100
     27 C27         0.6930   -9.5010   -3.5190 c3        1 TTG      0.196100
     28 N28         0.9430   -9.5200   -5.0120 n4        1 TTG     -0.685400
     29 C29         0.3800  -10.7450   -5.6260 c3        1 TTG      0.082100
     30 C30         0.3970   -8.3010   -5.6600 c3        1 TTG      0.082100
     31 O26         3.3400  -10.0130   -3.2710 oh        1 TTG     -0.546100
     32 O19        -2.8890    0.8480   -0.1170 oh        1 TTG     -0.629800
     33 H251        2.1760   -0.4400   -0.2070 hc        1 TTG      0.030700
     34 H252        1.3880   -0.9200    1.3750 hc        1 TTG      0.030700
     35 H311        1.3120    1.5040    2.0360 hc        1 TTG      0.035700
     36 H312        2.0830    1.9460    0.4570 hc        1 TTG      0.035700
     37 H313        3.0070    0.9560    1.6740 hc        1 TTG      0.035700
     38 H241       -1.2650    0.1640    1.3550 ho        1 TTG      0.392000
     39 H171        1.3160   -2.2970   -0.3350 ha        1 TTG      0.177000
     40 H191       -3.8280   -0.3850   -1.4040 h1        1 TTG      0.074200
     41 H192       -2.4020    0.5420   -2.1260 h1        1 TTG      0.074200
     42 H111       -2.7200   -5.4090   -1.4790 h1        1 TTG      0.081200
     43 H112       -2.3240   -4.7290   -3.1280 h1        1 TTG      0.081200
     44 H71        -0.9980   -7.4910   -3.0220 ha        1 TTG      0.124000
     45 H41         4.0470   -6.1190   -0.9480 ha        1 TTG      0.181000
     46 H31         4.8590   -8.2980   -1.8510 ha        1 TTG      0.156000
     47 H271        0.9390  -10.5370   -3.1370 hx        1 TTG      0.104200
     48 H272       -0.4000   -9.3030   -3.3520 hx        1 TTG      0.104200
     49 H291       -0.7210  -10.7990   -5.4170 hx        1 TTG      0.101200
     50 H292        0.8880  -11.6470   -5.1910 hx        1 TTG      0.101200
     51 H293        0.5490  -10.7180   -6.7360 hx        1 TTG      0.101200
     52 H301        0.7500   -8.2520   -6.7240 hx        1 TTG      0.101200
     53 H302        0.7540   -7.3950   -5.0950 hx        1 TTG      0.101200
     54 H303       -0.7240   -8.3320   -5.6340 hx        1 TTG      0.101200
     55 H261        4.2300  -10.2150   -2.9430 ho        1 TTG      0.452000
     56 H19O       -2.2250    1.5570   -0.2340 ho        1 TTG      0.468000
     57 H281        1.9680   -9.5270   -5.1400 hn        1 TTG      0.462800
@<TRIPOS>BOND
     1    1    2 1
     2    1    3 1
     3    1   33 1
     4    1   34 1
     5    2   35 1
     6    2   36 1
     7    2   37 1
     8    3    4 1
     9    3    5 1
    10    3    6 1
    11    4   38 1
    12    5    7 2
    13    5    8 1
    14    6    9 1
    15    6   10 1
    16    7   11 1
    17    7   12 1
    18    8   13 2
    19    8   39 1
    20   11   14 2
    21   11   15 1
    22   12   32 1
    23   12   40 1
    24   12   41 1
    25   13   15 1
    26   13   16 1
    27   15   17 1
    28   16   18 ar
    29   16   19 ar
    30   17   18 1
    31   17   42 1
    32   17   43 1
    33   18   20 ar
    34   19   21 ar
    35   20   22 ar
    36   20   44 1
    37   21   22 ar
    38   21   23 ar
    39   22   24 ar
    40   23   25 ar
    41   23   45 1
    42   24   26 ar
    43   24   27 1
    44   25   26 ar
    45   25   46 1
    46   26   31 1
    47   27   28 1
    48   27   47 1
    49   27   48 1
    50   28   29 1
    51   28   30 1
    52   28   57 1
    53   29   49 1
    54   29   50 1
    55   29   51 1
    56   30   52 1
    57   30   53 1
    58   30   54 1
    59   31   55 1
    60   32   56 1
@<TRIPOS>SUBSTRUCTURE
     1 TTG         1 TEMP              0 ****  ****    0 ROOT
