@<TRIPOS>MOLECULE
TTH
   54    53     1     0     0
SMALL
bcc


@<TRIPOS>ATOM
      1 C20         0.3460   -0.3280   -0.4190 c3        1 TTH     -0.057900
      2 C19         2.5420    0.0390   -1.5870 c3        1 TTH     -0.057900
      3 C18         1.8240   -0.4280   -0.3770 c2        1 TTH     -0.124400
      4 C17         2.4710   -0.9100    0.6970 c2        1 TTH     -0.177200
      5 C16         3.9450   -1.0290    0.7750 c3        1 TTH     -0.042200
      6 C14         6.6170   -0.2620    2.3580 c3        1 TTH     -0.058900
      7 C13         5.8940   -1.5510    2.2340 c2        1 TTH     -0.124400
      8 C15         4.4080   -1.4730    2.1510 c3        1 TTH     -0.039200
      9 C12         6.5350   -2.7310    2.2200 c2        1 TTH     -0.174200
     10 C11         8.0070   -2.8630    2.3100 c3        1 TTH     -0.042200
     11 C9          8.4410   -4.3090    2.4700 c3        1 TTH     -0.041200
     12 C8          9.9220   -4.4280    2.5920 c2        1 TTH     -0.128400
     13 C10        10.4540   -4.3120    3.9720 c3        1 TTH     -0.055900
     14 C7         10.7320   -4.6370    1.5430 c2        1 TTH     -0.164200
     15 C6         10.2700   -4.7730    0.1420 c3        1 TTH     -0.043200
     16 C5         11.4040   -4.7290   -0.8680 c3        1 TTH     -0.040200
     17 C3         12.2100   -5.9820   -0.9100 c2        1 TTH     -0.118400
     18 C4         13.5960   -5.8630   -0.3890 c3        1 TTH     -0.057900
     19 C2         11.7570   -7.1440   -1.4050 c2        1 TTH     -0.173200
     20 C1         10.4120   -7.3820   -1.9600 c3        1 TTH     -0.061900
     21 H201       -0.1200   -0.6680    0.5380 hc        1 TTH      0.040367
     22 H202       -0.0570   -0.9580   -1.2520 hc        1 TTH      0.040367
     23 H203        0.0380    0.7320   -0.6050 hc        1 TTH      0.040367
     24 H191        3.2550   -0.7460   -1.9470 hc        1 TTH      0.040367
     25 H192        1.8310    0.2790   -2.4150 hc        1 TTH      0.040367
     26 H193        3.1350    0.9600   -1.3530 hc        1 TTH      0.040367
     27 H17         1.9090   -1.2460    1.5840 ha        1 TTH      0.122000
     28 H161        4.4190   -0.0410    0.5190 hc        1 TTH      0.049700
     29 H162        4.3010   -1.7670    0.0040 hc        1 TTH      0.049700
     30 H141        7.0030   -0.1400    3.4010 hc        1 TTH      0.041367
     31 H142        5.9490    0.6030    2.1260 hc        1 TTH      0.041367
     32 H143        7.4920   -0.2320    1.6610 hc        1 TTH      0.041367
     33 H151        4.0350   -0.7470    2.9220 hc        1 TTH      0.046200
     34 H152        3.9520   -2.4720    2.3880 hc        1 TTH      0.046200
     35 H12         5.9690   -3.6730    2.1350 ha        1 TTH      0.122000
     36 H111        8.3910   -2.2590    3.1770 hc        1 TTH      0.049700
     37 H112        8.4780   -2.4330    1.3820 hc        1 TTH      0.049700
     38 HC91        8.0780   -4.9070    1.5910 hc        1 TTH      0.046200
     39 HC92        7.9550   -4.7420    3.3860 hc        1 TTH      0.046200
     40 H101       10.0850   -3.3690    4.4480 hc        1 TTH      0.039700
     41 H102       11.5710   -4.3000    3.9850 hc        1 TTH      0.039700
     42 H103       10.1040   -5.1750    4.5910 hc        1 TTH      0.039700
     43 HC7        11.8210   -4.7290    1.6960 ha        1 TTH      0.123000
     44 HC61        9.7100   -5.7430    0.0290 hc        1 TTH      0.050200
     45 HC62        9.5470   -3.9450   -0.0960 hc        1 TTH      0.050200
     46 HC51       10.9640   -4.5440   -1.8870 hc        1 TTH      0.045700
     47 HC52       12.0700   -3.8550   -0.6360 hc        1 TTH      0.045700
     48 HC41       14.1650   -5.1070   -0.9850 hc        1 TTH      0.039700
     49 HC42       13.5790   -5.5250    0.6780 hc        1 TTH      0.039700
     50 HC43       14.1430   -6.8360   -0.4410 hc        1 TTH      0.039700
     51 HC2        12.4170   -8.0290   -1.4100 ha        1 TTH      0.117000
     52 HC11       10.4770   -8.0400   -2.8630 hc        1 TTH      0.040033
     53 HC12        9.9030   -6.4310   -2.2550 hc        1 TTH      0.040033
     54 HC13        9.7720   -7.8990   -1.2000 hc        1 TTH      0.040033
@<TRIPOS>BOND
     1    1    3 1   
     2    1   21 1   
     3    1   22 1   
     4    1   23 1   
     5    2    3 1   
     6    2   24 1   
     7    2   25 1   
     8    2   26 1   
     9    3    4 2   
    10    4    5 1   
    11    4   27 1   
    12    5    8 1   
    13    5   28 1   
    14    5   29 1   
    15    6    7 1   
    16    6   30 1   
    17    6   31 1   
    18    6   32 1   
    19    7    8 1   
    20    7    9 2   
    21    8   33 1   
    22    8   34 1   
    23    9   10 1   
    24    9   35 1   
    25   10   11 1   
    26   10   36 1   
    27   10   37 1   
    28   11   12 1   
    29   11   38 1   
    30   11   39 1   
    31   12   13 1   
    32   12   14 2   
    33   13   40 1   
    34   13   41 1   
    35   13   42 1   
    36   14   15 1   
    37   14   43 1   
    38   15   16 1   
    39   15   44 1   
    40   15   45 1   
    41   16   17 1   
    42   16   46 1   
    43   16   47 1   
    44   17   18 1   
    45   17   19 2   
    46   18   48 1   
    47   18   49 1   
    48   18   50 1   
    49   19   20 1   
    50   19   51 1   
    51   20   52 1   
    52   20   53 1   
    53   20   54 1   
@<TRIPOS>SUBSTRUCTURE
     1 TTH         1 TEMP              0 ****  ****    0 ROOT
