@<TRIPOS>MOLECULE
molecule
   54    53     1     0     0
SMALL
bcc


@<TRIPOS>ATOM
      1 C20          0.0000     0.0000     0.0000 c3         1 TTH      -0.050400
      2 C19          2.0990     0.0050    -1.3920 c3         1 TTH      -0.050400
      3 C18          1.5060     0.0000     0.0000 c2         1 TTH      -0.141400
      4 C17          2.2360     0.0000     1.1570 c2         1 TTH      -0.174200
      5 C16          3.7480     0.0070     1.2510 c3         1 TTH      -0.036200
      6 C14          6.4050     0.1290     3.9500 c3         1 TTH      -0.115900
      7 C13          5.6180    -0.5910     2.8900 c2         1 TTH      -0.015400
      8 C15          4.2380     0.0010     2.6840 c3         1 TTH      -0.032200
      9 C12          6.0830    -1.6650     2.1840 c2         1 TTH      -0.494200
     10 C11          7.4430    -2.3140     2.3290 c3         1 TTH       0.071800
     11 C9           7.6050    -3.5030     1.3670 c3         1 TTH      -0.031200
     12 C8           8.9200    -4.2440     1.4170 c2         1 TTH      -0.141400
     13 C10          9.5860    -4.2600     2.7750 c3         1 TTH      -0.055900
     14 C7           9.4410    -4.8510     0.3120 c2         1 TTH      -0.166200
     15 C6          10.7470    -5.6240     0.2590 c3         1 TTH      -0.035200
     16 C5          11.1080    -6.1470    -1.1490 c3         1 TTH      -0.036200
     17 C3          12.3690    -7.0050    -1.2380 c2         1 TTH      -0.129400
     18 C4          13.4940    -6.5970    -0.3150 c3         1 TTH      -0.053900
     19 C2          12.4700    -8.0520    -2.1000 c2         1 TTH      -0.182200
     20 C1          13.6900    -8.9610    -2.2810 c3         1 TTH      -0.046900
     21 H201        -0.3610    -0.9650    -0.3330 hc         1 TTH       0.038867
     22 H202        -0.3610     0.1940     1.0030 hc         1 TTH       0.038867
     23 H203        -0.3610     0.7710    -0.6690 hc         1 TTH       0.038867
     24 H191         1.3020    -0.0000    -2.1250 hc         1 TTH       0.038867
     25 H192         2.7170    -0.8760    -1.5240 hc         1 TTH       0.038867
     26 H193         2.7050     0.8930    -1.5230 hc         1 TTH       0.038867
     27 H17          1.6930    -0.0000     2.0940 ha         1 TTH       0.112000
     28 H161         4.1250     0.8940     0.7560 hc         1 TTH       0.065700
     29 H162         4.1340    -0.8690     0.7450 hc         1 TTH       0.065700
     30 H141         6.7090    -0.5760     4.7140 hc         1 TTH       0.046700
     31 H142         5.7880     0.9010     4.3960 hc         1 TTH       0.046700
     32 H143         7.2830     0.5810     3.5050 hc         1 TTH       0.046700
     33 H151         3.5340    -0.5640     3.2820 hc         1 TTH       0.046200
     34 H152         4.2490     1.0230     3.0440 hc         1 TTH       0.046200
     35 H12          6.4790    -2.0570     3.1140 ha         1 TTH       0.231000
     36 H111         7.5600    -2.6650     3.3470 hc         1 TTH       0.031200
     37 H112         8.2100    -1.5800     2.1170 hc         1 TTH       0.031200
     38 HC91         6.8140    -4.2130     1.5770 hc         1 TTH       0.064700
     39 HC92         7.4680    -3.1350     0.3570 hc         1 TTH       0.064700
     40 H101        10.1270    -3.3330     2.9240 hc         1 TTH       0.039033
     41 H102         8.8320    -4.3660     3.5460 hc         1 TTH       0.039033
     42 H103        10.2760    -5.0930     2.8290 hc         1 TTH       0.039033
     43 HC7          8.8780    -4.7860    -0.6110 ha         1 TTH       0.123000
     44 HC61        11.5450    -4.9760     0.6010 hc         1 TTH       0.048200
     45 HC62        10.6750    -6.4690     0.9330 hc         1 TTH       0.048200
     46 HC51        10.2740    -6.7350    -1.5140 hc         1 TTH       0.046200
     47 HC52        11.2330    -5.2940    -1.8040 hc         1 TTH       0.046200
     48 HC41        13.4510    -5.5280    -0.1450 hc         1 TTH       0.040367
     49 HC42        14.4440    -6.8530    -0.7690 hc         1 TTH       0.040367
     50 HC43        13.3930    -7.1180     0.6290 hc         1 TTH       0.040367
     51 HC2         11.6160    -8.2640    -2.7320 ha         1 TTH       0.117000
     52 HC11        14.5200    -8.3800    -2.6640 hc         1 TTH       0.039367
     53 HC12        13.9630    -9.3940    -1.3260 hc         1 TTH       0.039367
     54 HC13        13.4500    -9.7520    -2.9800 hc         1 TTH       0.039367
@<TRIPOS>BOND
     1     1     3 1
     2     1    21 1
     3     1    22 1
     4     1    23 1
     5     2     3 1
     6     2    24 1
     7     2    25 1
     8     2    26 1
     9     3     4 2
    10     4     5 1
    11     4    27 1
    12     5     8 1
    13     5    28 1
    14     5    29 1
    15     6     7 1
    16     6    30 1
    17     6    31 1
    18     6    32 1
    19     7     8 1
    20     7     9 2
    21     8    33 1
    22     8    34 1
    23     9    10 1
    24     9    35 1
    25    10    11 1
    26    10    36 1
    27    10    37 1
    28    11    12 1
    29    11    38 1
    30    11    39 1
    31    12    13 1
    32    12    14 2
    33    13    40 1
    34    13    41 1
    35    13    42 1
    36    14    15 1
    37    14    43 1
    38    15    16 1
    39    15    44 1
    40    15    45 1
    41    16    17 1
    42    16    46 1
    43    16    47 1
    44    17    18 1
    45    17    19 2
    46    18    48 1
    47    18    49 1
    48    18    50 1
    49    19    20 1
    50    19    51 1
    51    20    52 1
    52    20    53 1
    53    20    54 1
@<TRIPOS>SUBSTRUCTURE
     1 TTH         1 TEMP              0 ****  ****    0 ROOT
