@<TRIPOS>MOLECULE
TTJ
   41    43     1     0     0
SMALL
bcc


@<TRIPOS>ATOM
      1 CAD          0.0000     0.0000     0.0000 c3         1 TTJ       0.182400
      2 OAC          1.4310     0.0000     0.0000 os         1 TTJ      -0.402600
      3 CAT          2.0030     0.0000     1.3110 c3         1 TTJ       0.171400
      4 CAB          1.5020    -1.2270     2.0780 c3         1 TTJ       0.170400
      5 OAA          0.0710    -1.2280     2.0780 os         1 TTJ      -0.363600
      6 CAS         -0.5010    -1.2280     0.7670 c3         1 TTJ       0.071100
      7 CAQ         -2.0040    -1.1750     0.8740 c          1 TTJ       0.558100
      8 OAR         -2.5310    -1.0570     1.9600 o          1 TTJ      -0.584100
      9 NAP         -2.7620    -1.2610    -0.2370 ns         1 TTJ       0.000900
     10 CAN         -4.1530    -1.2120    -0.1390 cc         1 TTJ      -0.261700
     11 CAO         -4.8700    -1.0830     1.0080 cd         1 TTJ      -0.327300
     12 NAM         -5.0320    -1.2810    -1.1710 na         1 TTJ       0.413400
     13 NAL         -6.3270    -1.1960    -0.6450 nc         1 TTJ      -0.653800
     14 CAK         -6.2350    -1.0780     0.6630 cd         1 TTJ       0.443800
     15 CAJ         -7.3720    -0.9590     1.6080 ca         1 TTJ      -0.112500
     16 CAE         -8.6810    -0.9670     1.1330 ca         1 TTJ      -0.088500
     17 CAF         -9.7350    -0.8560     2.0170 ca         1 TTJ      -0.092800
     18 CAU        -11.1510    -0.8650     1.5040 c3         1 TTJ       0.065700
     19 CAG         -9.4930    -0.7370     3.3740 ca         1 TTJ      -0.099000
     20 CAH         -8.1960    -0.7270     3.8520 ca         1 TTJ      -0.092800
     21 CAV         -7.9390    -0.5960     5.3310 c3         1 TTJ       0.065700
     22 CAI         -7.1340    -0.8440     2.9760 ca         1 TTJ      -0.088500
     23 H1          -0.3610     0.9000     0.4830 h1         1 TTJ       0.018700
     24 H2          -0.3610    -0.0400    -1.0210 h1         1 TTJ       0.018700
     25 H3           1.7050     0.9000     1.8350 h1         1 TTJ       0.020200
     26 H4           3.0830    -0.0390     1.2330 h1         1 TTJ       0.020200
     27 H5           1.8640    -2.1270     1.5960 h1         1 TTJ       0.019700
     28 H6           1.8630    -1.1870     3.0990 h1         1 TTJ       0.019700
     29 H7          -0.2010    -2.1280     0.2430 h1         1 TTJ       0.027700
     30 H8          -2.3290    -1.3890    -1.1300 hn         1 TTJ       0.157500
     31 H9          -4.4640    -1.0010     2.0090 ha         1 TTJ       0.191000
     32 H10         -4.7960    -1.3780    -2.1390 hn         1 TTJ       0.144700
     33 H11         -8.8730    -1.1120     0.0770 ha         1 TTJ       0.120000
     34 H12        -11.8210    -1.1740     2.2970 hc         1 TTJ       0.006200
     35 H13        -11.4210     0.1300     1.1710 hc         1 TTJ       0.006200
     36 H14        -11.2310    -1.5570     0.6740 hc         1 TTJ       0.006200
     37 H15        -10.3230    -0.6500     4.0640 ha         1 TTJ       0.107000
     38 H16         -7.6780    -1.5650     5.7390 hc         1 TTJ       0.006200
     39 H17         -7.1230     0.0970     5.4960 hc         1 TTJ       0.006200
     40 H18         -8.8320    -0.2270     5.8210 hc         1 TTJ       0.006200
     41 H19         -6.1180    -0.8360     3.3520 ha         1 TTJ       0.120000
@<TRIPOS>BOND
     1     1     2 1   
     2     1     6 1   
     3     1    23 1   
     4     1    24 1   
     5     2     3 1   
     6     3     4 1   
     7     3    25 1   
     8     3    26 1   
     9     4     5 1   
    10     4    27 1   
    11     4    28 1   
    12     5     6 1   
    13     6     7 1   
    14     6    29 1   
    15     7     8 2   
    16     7     9 1   
    17     9    10 1   
    18     9    30 1   
    19    10    11 2   
    20    10    12 1   
    21    11    14 1   
    22    11    31 1   
    23    12    13 1   
    24    12    32 1   
    25    13    14 2   
    26    14    15 1   
    27    15    16 ar  
    28    15    22 ar  
    29    16    17 ar  
    30    16    33 1   
    31    17    18 1   
    32    17    19 ar  
    33    18    34 1   
    34    18    35 1   
    35    18    36 1   
    36    19    20 ar  
    37    19    37 1   
    38    20    21 1   
    39    20    22 ar  
    40    21    38 1   
    41    21    39 1   
    42    21    40 1   
    43    22    41 1   
@<TRIPOS>SUBSTRUCTURE
     1 TTJ         1 TEMP              0 ****  ****    0 ROOT
