@<TRIPOS>MOLECULE
molecule
   41    43     1     0     0
SMALL
bcc


@<TRIPOS>ATOM
      1 CAD          0.0000     0.0000     0.0000 c3         1 TTJ       0.108400
      2 OAC          1.4310     0.0000     0.0000 os         1 TTJ      -0.414600
      3 CAT          2.0030     0.0000     1.3110 c3         1 TTJ       0.095400
      4 CAB          1.5020    -1.2270     2.0780 c3         1 TTJ       0.100400
      5 OAA          0.0710    -1.2280     2.0780 os         1 TTJ      -0.382600
      6 CAS         -0.5010    -1.2280     0.7670 c3         1 TTJ       0.039100
      7 CAQ         -2.0040    -1.1750     0.8740 c          1 TTJ       0.667100
      8 OAR         -2.5310    -1.0570     1.9600 o          1 TTJ      -0.541100
      9 NAP         -2.7620    -1.2610    -0.2370 ns         1 TTJ      -0.463100
     10 CAN         -4.1530    -1.2120    -0.1390 cc         1 TTJ       0.052300
     11 CAO         -4.8700    -1.0830     1.0080 cd         1 TTJ      -0.336300
     12 NAM         -5.0320    -1.2810    -1.1710 na         1 TTJ      -0.070600
     13 NAL         -6.3270    -1.1960    -0.6450 nc         1 TTJ      -0.503800
     14 CAK         -6.2350    -1.0780     0.6630 cd         1 TTJ       0.409800
     15 CAJ         -7.3720    -0.9590     1.6080 ca         1 TTJ      -0.110500
     16 CAE         -8.6810    -0.9670     1.1330 ca         1 TTJ      -0.108500
     17 CAF         -9.7350    -0.8560     2.0170 ca         1 TTJ      -0.085300
     18 CAU        -11.1510    -0.8650     1.5040 c3         1 TTJ      -0.045800
     19 CAG         -9.4930    -0.7370     3.3740 ca         1 TTJ      -0.121000
     20 CAH         -8.1960    -0.7270     3.8520 ca         1 TTJ      -0.085300
     21 CAV         -7.9390    -0.5960     5.3310 c3         1 TTJ      -0.045800
     22 CAI         -7.1340    -0.8440     2.9760 ca         1 TTJ      -0.108500
     23 H1          -0.3610     0.9000     0.4830 h1         1 TTJ       0.061700
     24 H2          -0.3610    -0.0400    -1.0210 h1         1 TTJ       0.061700
     25 H3           1.7050     0.9000     1.8350 h1         1 TTJ       0.062200
     26 H4           3.0830    -0.0390     1.2330 h1         1 TTJ       0.062200
     27 H5           1.8640    -2.1270     1.5960 h1         1 TTJ       0.061700
     28 H6           1.8630    -1.1870     3.0990 h1         1 TTJ       0.061700
     29 H7          -0.2010    -2.1280     0.2430 h1         1 TTJ       0.062700
     30 H8          -2.3290    -1.3890    -1.1300 hn         1 TTJ       0.319500
     31 H9          -4.4640    -1.0010     2.0090 ha         1 TTJ       0.200000
     32 H10         -4.7960    -1.3780    -2.1390 hn         1 TTJ       0.322700
     33 H11         -8.8730    -1.1120     0.0770 ha         1 TTJ       0.143500
     34 H12        -11.8210    -1.1740     2.2970 hc         1 TTJ       0.042700
     35 H13        -11.4210     0.1300     1.1710 hc         1 TTJ       0.042700
     36 H14        -11.2310    -1.5570     0.6740 hc         1 TTJ       0.042700
     37 H15        -10.3230    -0.6500     4.0640 ha         1 TTJ       0.129000
     38 H16         -7.6780    -1.5650     5.7390 hc         1 TTJ       0.042700
     39 H17         -7.1230     0.0970     5.4960 hc         1 TTJ       0.042700
     40 H18         -8.8320    -0.2270     5.8210 hc         1 TTJ       0.042700
     41 H19         -6.1180    -0.8360     3.3520 ha         1 TTJ       0.143500
@<TRIPOS>BOND
     1    21    20 1
     2    20    19 ar
     3    20    22 ar
     4    19    17 ar
     5    22    15 ar
     6    17    18 1
     7    17    16 ar
     8    15    14 1
     9    15    16 ar
    10    13    14 2
    11    13    12 1
    12    14    11 1
    13    12    10 1
    14    11    10 2
    15    10     9 1
    16     9     7 1
    17     7     8 2
    18     7     6 1
    19     6     1 1
    20     6     5 1
    21     1     2 1
    22     5     4 1
    23     2     3 1
    24     4     3 1
    25     1    23 1
    26     1    24 1
    27     3    25 1
    28     3    26 1
    29     4    27 1
    30     4    28 1
    31     6    29 1
    32     9    30 1
    33    11    31 1
    34    12    32 1
    35    16    33 1
    36    18    34 1
    37    18    35 1
    38    18    36 1
    39    19    37 1
    40    21    38 1
    41    21    39 1
    42    21    40 1
    43    22    41 1
@<TRIPOS>SUBSTRUCTURE
     1 TTJ         1 TEMP              0 ****  ****    0 ROOT
