@<TRIPOS>MOLECULE
TTL
   26    27     1     0     0
SMALL
bcc


@<TRIPOS>ATOM
      1 OAB          0.0000     0.0000     0.0000 oh         1 TTL      -0.577800
      2 CAL          1.4290     0.0000     0.0000 c3         1 TTL       0.264400
      3 CAJ          1.9260     0.0000     1.4220 ca         1 TTL      -0.143300
      4 CAF          1.2800     0.8280     2.3320 ca         1 TTL      -0.061000
      5 CAD          1.6960     0.8820     3.6460 ca         1 TTL      -0.081000
      6 CAC          2.7620     0.1060     4.0630 ca         1 TTL      -0.058000
      7 CAE          3.4010    -0.7190     3.1610 ca         1 TTL      -0.087000
      8 CAI          2.9850    -0.7750     1.8370 ca         1 TTL      -0.084300
      9 CAG          3.7240    -1.7010     0.9070 c3         1 TTL       0.049900
     10 CAH          3.4500    -1.3320    -0.5490 c3         1 TTL      -0.023400
     11 CAK          1.9330    -1.2340    -0.7460 c3         1 TTL      -0.105500
     12 NAA          1.6260    -1.1080    -2.1760 nz         1 TTL       0.079400
     13 HAB         -0.3140     0.8150    -0.3560 ho         1 TTL       0.411000
     14 HAL          1.7900     0.8890    -0.5020 h1         1 TTL       0.011700
     15 HAF          0.4450     1.4360     2.0070 ha         1 TTL       0.110000
     16 HAD          1.1890     1.5320     4.3500 ha         1 TTL       0.120000
     17 HAC          3.0920     0.1450     5.0940 ha         1 TTL       0.120000
     18 HAE          4.2360    -1.3260     3.4870 ha         1 TTL       0.118000
     19 HAG1         3.3970    -2.7190     1.0840 hc         1 TTL       0.042700
     20 HAG2         4.7880    -1.6240     1.0990 hc         1 TTL       0.042700
     21 HAH1         3.9080    -0.3770    -0.7740 hc         1 TTL       0.034700
     22 HAH2         3.8520    -2.0990    -1.2000 hc         1 TTL       0.034700
     23 HAK          1.4570    -2.1200    -0.3420 hx         1 TTL       0.113700
     24 HAA1         0.6470    -0.9380    -2.2940 hn         1 TTL       0.224133
     25 HAA2         2.1450    -0.3450    -2.5640 hn         1 TTL       0.224133
     26 HAA3         1.8770    -1.9550    -2.6470 hn         1 TTL       0.224133
@<TRIPOS>BOND
     1     1     2 1   
     2     1    13 1   
     3     2     3 1   
     4     2    11 1   
     5     2    14 1   
     6     3     4 ar  
     7     3     8 ar  
     8     4     5 ar  
     9     4    15 1   
    10     5     6 ar  
    11     5    16 1   
    12     6     7 ar  
    13     6    17 1   
    14     7     8 ar  
    15     7    18 1   
    16     8     9 1   
    17     9    10 1   
    18     9    19 1   
    19     9    20 1   
    20    10    11 1   
    21    10    21 1   
    22    10    22 1   
    23    11    12 1   
    24    11    23 1   
    25    12    24 1   
    26    12    25 1   
    27    12    26 1   
@<TRIPOS>SUBSTRUCTURE
     1 TTL         1 TEMP              0 ****  ****    0 ROOT
