@<TRIPOS>MOLECULE
TTN
   10     9     1     0     0
SMALL
bcc


@<TRIPOS>ATOM
      1 C1         -0.0290   -0.1480   -0.0770 c         1 TTN      0.904600
      2 C2          1.4640    0.2260   -0.0030 c3        1 TTN     -0.062900
      3 C3          2.1330    0.0610    1.3750 c         1 TTN      0.904600
      4 O1         -0.3440   -1.3490   -0.3480 o         1 TTN     -0.884800
      5 O2         -0.9080    0.7590    0.0490 o         1 TTN     -0.884800
      6 O3          2.1800   -0.5610   -0.9560 oh        1 TTN     -0.654800
      7 O4          2.6590   -1.0590    1.6670 o         1 TTN     -0.884800
      8 O5          2.2210    1.0610    2.1520 o         1 TTN     -0.884800
      9 H2          1.5940    1.2860   -0.3500 h1        1 TTN      0.034700
     10 HO3         2.0640   -1.4710   -0.6510 ho        1 TTN      0.411000
@<TRIPOS>BOND
     1    1    2 1   
     2    1    4 1   
     3    1    5 1   
     4    2    3 1   
     5    2    6 1   
     6    2    9 1   
     7    3    7 1   
     8    3    8 1   
     9    6   10 1   
@<TRIPOS>SUBSTRUCTURE
     1 TTN         1 TEMP              0 ****  ****    0 ROOT
