@<TRIPOS>MOLECULE
molecule
   10     9     1     0     0
SMALL
bcc


@<TRIPOS>ATOM
      1 C1           0.0000     0.0000     0.0000 c          1 TTN       0.903600
      2 C2           1.5070     0.0000     0.0000 c3         1 TTN      -0.049900
      3 C3           2.0100     0.0000     1.4210 c          1 TTN       0.903600
      4 O1          -0.6370    -1.0010    -0.4670 o          1 TTN      -0.875550
      5 O2          -0.6370     1.0010     0.4660 o          1 TTN      -0.875550
      6 O3           1.9840    -1.1680    -0.6730 oh         1 TTN      -0.578800
      7 O4           2.7430    -0.9560     1.8380 o          1 TTN      -0.875550
      8 O5           1.7010     0.9560     2.2050 o          1 TTN      -0.875550
      9 H2           1.8680     0.8840    -0.5110 h1         1 TTN      -0.004300
     10 HO3          2.4970    -0.9120    -1.4220 ho         1 TTN       0.327000
@<TRIPOS>BOND
     1     1     2 1
     2     1     4 1
     3     1     5 1
     4     2     3 1
     5     2     6 1
     6     2     9 1
     7     3     7 1
     8     3     8 1
     9     6    10 1
@<TRIPOS>SUBSTRUCTURE
     1 TTN         1 TEMP              0 ****  ****    0 ROOT
