@<TRIPOS>MOLECULE
molecule
   42    43     1     0     0
SMALL
bcc


@<TRIPOS>ATOM
      1 PA           0.0000     0.0000     0.0000 p5         1 TTP       1.255800
      2 O1A          1.4790     0.0000     0.0000 o          1 TTP      -0.791000
      3 O2A         -0.5370     0.0000     1.5170 o          1 TTP      -0.791000
      4 O3A         -0.5370     1.3150    -0.7580 os         1 TTP      -0.650800
      5 PB           0.0340     2.5850     0.0510 p5         1 TTP       1.272800
      6 O1B         -0.4600     2.5430     1.4450 o          1 TTP      -0.677000
      7 O2B          1.6420     2.5420     0.0500 o          1 TTP      -0.677000
      8 O3B         -0.4670     3.9410    -0.6560 os         1 TTP      -0.658800
      9 PG           0.1380     5.1630     0.2000 p5         1 TTP       1.207900
     10 O1G          1.6150     5.0840     0.1960 o          1 TTP      -0.813167
     11 O2G         -0.3270     6.5590    -0.4550 o          1 TTP      -0.813167
     12 O3G         -0.4020     5.0760     1.7140 o          1 TTP      -0.813167
     13 O5'         -0.5370    -1.3140    -0.7590 os         1 TTP      -0.544200
     14 C5'         -0.0290    -2.4410    -0.0430 c3         1 TTP       0.170400
     15 C4'         -0.5040    -3.7300    -0.7160 c3         1 TTP       0.144100
     16 O4'          0.0710    -3.8610    -2.0350 os         1 TTP      -0.362600
     17 C3'          0.0320    -4.9710     0.0410 c3         1 TTP       0.108100
     18 O3'         -0.8370    -5.3260     1.1180 oh         1 TTP      -0.611800
     19 C2'          0.0150    -6.0560    -1.0630 c3         1 TTP      -0.152400
     20 C1'          0.0110    -5.2560    -2.3790 c3         1 TTP       0.321500
     21 N1           1.1780    -5.6200    -3.1870 n          1 TTP      -0.330000
     22 C2           2.4150    -5.4340    -2.6930 c          1 TTP       0.808500
     23 O2           2.5520    -4.9640    -1.5810 o          1 TTP      -0.679500
     24 N3           3.5030    -5.7600    -3.4140 ns         1 TTP      -0.572500
     25 C4           3.3680    -6.2860    -4.6480 c          1 TTP       0.679700
     26 O4           4.3530    -6.5820    -5.3010 o          1 TTP      -0.763500
     27 C5           2.0720    -6.4830    -5.1810 cc         1 TTP      -0.355400
     28 C5M          1.8950    -7.0650    -6.5600 c3         1 TTP       0.028100
     29 C6           0.9980    -6.1470    -4.4370 cd         1 TTP      -0.171400
     30 H5'1        -0.3910    -2.4120     0.9780 h1         1 TTP       0.066700
     31 H5'2         1.0540    -2.4110    -0.0440 h1         1 TTP       0.066700
     32 H4'         -1.5860    -3.7600    -0.7720 h1         1 TTP       0.044700
     33 H3'          1.0420    -4.7990     0.3920 h1         1 TTP       0.084700
     34 HO3'        -0.3280    -5.6810     1.8280 ho         1 TTP       0.383000
     35 H2'1         0.9030    -6.6740    -0.9980 hc         1 TTP       0.041700
     36 H2'2        -0.8820    -6.6600    -0.9850 hc         1 TTP       0.041700
     37 H1'         -0.9000    -5.4580    -2.9280 h2         1 TTP       0.042700
     38 HN3          4.4160    -5.6140    -3.0310 hn         1 TTP       0.329500
     39 HM51         2.3810    -6.4260    -7.2870 hc         1 TTP       0.003700
     40 HM52         0.8390    -7.1350    -6.7890 hc         1 TTP       0.003700
     41 HM53         2.3370    -8.0540    -6.5940 hc         1 TTP       0.003700
     42 H6          -0.0020    -6.2910    -4.8280 h4         1 TTP       0.118000
@<TRIPOS>BOND
     1     1     2 1
     2     1     3 1
     3     1     4 1
     4     1    13 1
     5     4     5 1
     6     5     6 1
     7     5     7 1
     8     5     8 1
     9     8     9 1
    10     9    10 1
    11     9    11 1
    12     9    12 1
    13    13    14 1
    14    14    15 1
    15    14    30 1
    16    14    31 1
    17    15    16 1
    18    15    17 1
    19    15    32 1
    20    16    20 1
    21    17    18 1
    22    17    19 1
    23    17    33 1
    24    18    34 1
    25    19    20 1
    26    19    35 1
    27    19    36 1
    28    20    21 1
    29    20    37 1
    30    21    22 1
    31    21    29 1
    32    22    23 2
    33    22    24 1
    34    24    25 1
    35    24    38 1
    36    25    26 2
    37    25    27 1
    38    27    28 1
    39    27    29 2
    40    28    39 1
    41    28    40 1
    42    28    41 1
    43    29    42 1
@<TRIPOS>SUBSTRUCTURE
     1 TTP         1 TEMP              0 ****  ****    0 ROOT
