@<TRIPOS>MOLECULE
TTT
   43    45     1     0     0
SMALL
bcc


@<TRIPOS>ATOM
      1 C1           0.0000     0.0000     0.0000 c          1 TTT       0.604700
      2 C3           1.4790     0.0000     0.0000 ca         1 TTT      -0.111600
      3 C8          -3.8980     1.5510    -2.2880 ca         1 TTT      -0.022000
      4 C9          -2.3240     1.7720    -4.5610 ca         1 TTT      -0.097000
      5 C10          2.1780     0.0000     1.2070 ca         1 TTT      -0.070300
      6 C11         -4.3540     2.2910    -3.4080 ca         1 TTT      -0.032000
      7 C12         -3.5370     2.3880    -4.5480 ca         1 TTT      -0.085000
      8 C13          2.1780    -0.0050    -1.2070 ca         1 TTT      -0.169000
      9 C14         -4.7140     1.4540    -1.1480 ca         1 TTT      -0.097000
     10 C16          1.4270    -0.0010     2.5130 c3         1 TTT       0.056200
     11 C19          3.5650    -0.0050    -1.1980 ca         1 TTT       0.040600
     12 C20         -5.9280     2.0700    -1.1340 ca         1 TTT      -0.094000
     13 C21          4.2520     0.0010     0.0100 ca         1 TTT      -0.156000
     14 C22         -6.3760     2.7960    -2.2360 ca         1 TTT      -0.097000
     15 O7          -0.6080    -0.1160     1.0460 o          1 TTT      -0.654100
     16 C17          3.5590     0.0010     1.2040 ca         1 TTT      -0.067000
     17 N01          4.2700    -0.0100    -2.4040 nv         1 TTT      -0.454200
     18 N2          -0.6740     0.1340    -1.1610 ns         1 TTT      -0.213900
     19 C6          -2.1390     0.1330    -1.1600 c3         1 TTT       0.073000
     20 C01         -2.6480    -1.3060    -1.2580 c3         1 TTT      -0.016100
     21 C5          -2.6410     0.9250    -2.3410 ca         1 TTT      -0.083300
     22 C18         -5.6130     2.9130    -3.3560 ca         1 TTT      -0.089000
     23 C4          -1.8810     1.0360    -3.4630 ca         1 TTT      -0.111000
     24 H12         -3.8690     2.9570    -5.4080 ha         1 TTT       0.107000
     25 H13          1.6410    -0.0100    -2.1480 ha         1 TTT       0.105000
     26 H14         -4.3790     0.8930    -0.2840 ha         1 TTT       0.119000
     27 H16          0.6970     0.7990     2.5100 hc         1 TTT       0.018033
     28 H16A         2.1230     0.1490     3.3300 hc         1 TTT       0.018033
     29 H16B         0.9220    -0.9510     2.6390 hc         1 TTT       0.018033
     30 H20         -6.5560     1.9930    -0.2540 ha         1 TTT       0.103000
     31 H21          5.3360     0.0010     0.0140 ha         1 TTT       0.107000
     32 H22         -7.3460     3.2770    -2.1990 ha         1 TTT       0.101000
     33 H17          4.1000     0.0030     2.1430 ha         1 TTT       0.107000
     34 HN01         3.7860    -0.1630    -3.2670 hn         1 TTT       0.265300
     35 HN0A         5.2610     0.1350    -2.4050 hn         1 TTT       0.265300
     36 HN2         -0.1740     0.2200    -2.0230 hn         1 TTT       0.190500
     37 H6          -2.5000     0.5830    -0.2440 h1         1 TTT       0.067700
     38 H01         -2.8250    -1.6940    -0.2620 hc         1 TTT       0.014367
     39 H01A        -3.5730    -1.3240    -1.8220 hc         1 TTT       0.014367
     40 H01B        -1.9080    -1.9180    -1.7580 hc         1 TTT       0.014367
     41 H18         -5.9740     3.4810    -4.2050 ha         1 TTT       0.106000
     42 H4          -0.9100     0.5550    -3.5000 ha         1 TTT       0.102000
     43 H9          -1.6980     1.8440    -5.4420 ha         1 TTT       0.101000
@<TRIPOS>BOND
     1     1     2 1   
     2     1    15 2   
     3     1    18 1   
     4     2     5 ar  
     5     2     8 ar  
     6     3     6 ar  
     7     3     9 ar  
     8     3    21 ar  
     9     4     7 ar  
    10     4    23 ar  
    11     4    43 1   
    12     5    10 1   
    13     5    16 ar  
    14     6     7 ar  
    15     6    22 ar  
    16     7    24 1   
    17     8    11 ar  
    18     8    25 1   
    19     9    12 ar  
    20     9    26 1   
    21    10    27 1   
    22    10    28 1   
    23    10    29 1   
    24    11    13 ar  
    25    11    17 1   
    26    12    14 ar  
    27    12    30 1   
    28    13    16 ar  
    29    13    31 1   
    30    14    22 ar  
    31    14    32 1   
    32    16    33 1   
    33    17    34 1   
    34    17    35 1   
    35    18    19 1   
    36    18    36 1   
    37    19    20 1   
    38    19    21 1   
    39    19    37 1   
    40    20    38 1   
    41    20    39 1   
    42    20    40 1   
    43    21    23 ar  
    44    22    41 1   
    45    23    42 1   
@<TRIPOS>SUBSTRUCTURE
     1 TTT         1 TEMP              0 ****  ****    0 ROOT
