@<TRIPOS>MOLECULE
molecule
   43    44     1     0     0
SMALL
bcc


@<TRIPOS>ATOM
      1 O4           0.0000     0.0000     0.0000 o          1 TTW      -0.747500
      2 C4           1.2180     0.0000     0.0000 c          1 TTW       0.687700
      3 N3           1.8990     0.0000     1.1630 ns         1 TTW      -0.571500
      4 C2           3.2450     0.0000     1.1620 c          1 TTW       0.808500
      5 O2           3.8460     0.0010     2.2180 o          1 TTW      -0.668500
      6 C5           1.9310    -0.0080    -1.2230 cc         1 TTW      -0.351400
      7 C5M          1.1940    -0.0140    -2.5370 c3         1 TTW       0.023100
      8 C6           3.2810    -0.0080    -1.1960 cd         1 TTW      -0.131400
      9 N1           3.9350    -0.0030     0.0060 n          1 TTW      -0.335000
     10 C1'          5.4000    -0.0030     0.0360 c3         1 TTW       0.320500
     11 O4'          5.8710    -1.0800     0.8640 os         1 TTW      -0.351600
     12 C2'          5.9120     1.3100     0.6570 c3         1 TTW      -0.154400
     13 C3'          6.7530     0.8530     1.8730 c3         1 TTW       0.104100
     14 O3'          7.9490     1.6270     1.9870 oh         1 TTW      -0.607800
     15 C4'          7.0780    -0.6180     1.5090 c3         1 TTW       0.140100
     16 C5'          7.3610    -1.4360     2.7700 c3         1 TTW       0.241400
     17 O5'          7.6700    -2.7830     2.4060 os         1 TTW      -0.595200
     18 PA           8.0210    -3.9250     3.4840 p5         1 TTW       1.436800
     19 O1A          9.1440    -3.4710     4.3350 o          1 TTW      -0.852000
     20 O2A          6.7310    -4.2090     4.4050 o          1 TTW      -0.852000
     21 O3A          8.4400    -5.2770     2.7170 os         1 TTW      -0.725800
     22 PB           9.1750    -6.6370     3.1680 p5         1 TTW       1.365700
     23 O1B          8.3820    -7.2960     4.2310 o          1 TTW      -0.799000
     24 O2B         10.6440    -6.2930     3.7300 o          1 TTW      -0.799000
     25 N3B          9.3060    -7.6690     1.8450 n7         1 TTW      -0.913400
     26 PG          10.0700    -9.1060     2.2750 p5         1 TTW       1.198800
     27 O1G         10.1770   -10.0630     0.9850 o          1 TTW      -0.810833
     28 O2G         11.5470    -8.7840     2.8280 o          1 TTW      -0.810833
     29 O3G          9.2850    -9.7850     3.3290 o          1 TTW      -0.810833
     30 H1           1.4020    -0.0000     2.0320 hn         1 TTW       0.332500
     31 H2           0.5820    -0.9050    -2.6040 hc         1 TTW       0.009033
     32 H3           0.5620     0.8630    -2.6010 hc         1 TTW       0.009033
     33 H4           1.9080    -0.0040    -3.3520 hc         1 TTW       0.009033
     34 H5           3.8440    -0.0120    -2.1210 h4         1 TTW       0.126000
     35 H6           5.7940    -0.1130    -0.9670 h2         1 TTW       0.050700
     36 H7           6.5320     1.8460    -0.0510 hc         1 TTW       0.042700
     37 H8           5.0800     1.9230     0.9830 hc         1 TTW       0.042700
     38 H9           6.1670     0.9010     2.7830 h1         1 TTW       0.074700
     39 H10          7.8330     2.2890     2.6480 ho         1 TTW       0.381000
     40 H11          7.9150    -0.6620     0.8230 h1         1 TTW       0.055700
     41 H12          8.2020    -1.0040     3.2990 h1         1 TTW       0.036200
     42 H13          6.4880    -1.4260     3.4110 h1         1 TTW       0.036200
     43 H16          9.4310    -7.2910     0.9260 hn         1 TTW       0.356800
@<TRIPOS>BOND
     1     5     4 2
     2     3     4 1
     3     3     2 1
     4     1     2 2
     5     4     9 1
     6     2     6 1
     7     9    10 1
     8     9     8 1
     9     6     8 2
    10     6     7 1
    11    10    12 1
    12    10    11 1
    13    12    13 1
    14    11    15 1
    15    13    15 1
    16    13    14 1
    17    15    16 1
    18    17    16 1
    19    17    18 1
    20    19    18 1
    21    23    22 1
    22    18    21 1
    23    18    20 1
    24    21    22 1
    25    22    25 1
    26    22    24 1
    27    25    26 1
    28    26    29 1
    29    26    28 1
    30    26    27 1
    31     3    30 1
    32     7    31 1
    33     7    32 1
    34     7    33 1
    35     8    34 1
    36    10    35 1
    37    12    36 1
    38    12    37 1
    39    13    38 1
    40    14    39 1
    41    15    40 1
    42    16    41 1
    43    16    42 1
    44    25    43 1
@<TRIPOS>SUBSTRUCTURE
     1 TTW         1 TEMP              0 ****  ****    0 ROOT
