@<TRIPOS>MOLECULE
molecule
   60    61     1     0     0
SMALL
bcc


@<TRIPOS>ATOM
      1 C7           0.0000     0.0000     0.0000 c3         1 TTX      -0.073700
      2 N1           1.3850     0.0000     0.0000 n          1 TTX      -0.455000
      3 C15          2.0550     0.0000     1.1590 ce         1 TTX       0.094400
      4 C16          1.3640    -0.0990     2.3200 cf         1 TTX      -0.309200
      5 C17         -0.1000    -0.1070     2.6190 ca         1 TTX       0.023200
      6 C22         -0.4070    -0.2100     3.9370 ca         1 TTX      -0.200000
      7 C21         -1.6950    -0.2950     4.4060 ca         1 TTX      -0.119500
      8 C20         -2.7320    -0.2580     3.5530 ca         1 TTX      -0.115000
      9 C19         -2.4590    -0.1430     2.2340 ca         1 TTX      -0.119500
     10 C18         -1.1840    -0.0660     1.7840 ca         1 TTX      -0.200000
     11 C6           1.5240     0.3950    -1.3870 c          1 TTX       0.645100
     12 O1           0.6900    -0.1030    -2.4350 o          1 TTX      -0.559100
     13 C5           1.3430     1.9770    -1.0110 c3         1 TTX       0.098700
     14 C4           0.3290     2.8610    -1.7280 c3         1 TTX      -0.093400
     15 C2          -1.1210     2.5270    -1.7200 c3         1 TTX      -0.072700
     16 C1          -1.7970     3.1200    -0.5280 c3         1 TTX      -0.092600
     17 C3          -1.7620     3.1200    -2.9660 c3         1 TTX      -0.092600
     18 N2           2.7330     2.4980    -1.2130 ns         1 TTX      -0.618900
     19 C8           3.4690     3.0770    -0.2500 c          1 TTX       0.654100
     20 O2           2.9160     3.7080     0.6260 o          1 TTX      -0.576100
     21 C9           4.9590     2.9490    -0.2050 c3         1 TTX       0.034700
     22 C10          5.5840     4.3110    -0.1250 c3         1 TTX      -0.101100
     23 N3           5.4610     2.2660    -1.3410 n          1 TTX      -0.452800
     24 C11          5.6880     2.9450    -2.5820 c3         1 TTX       0.070300
     25 C12          5.7800     1.0200    -1.3440 c          1 TTX       0.626100
     26 O3           6.2280     0.5240    -2.3650 o          1 TTX      -0.604100
     27 C13          5.5560     0.1990    -0.0980 c3         1 TTX       0.047000
     28 N4           4.1070     0.0520     0.0770 ns         1 TTX      -0.594900
     29 C14          3.3850    -0.0410     1.1850 c          1 TTX       0.675300
     30 O4           3.9350    -0.1280     2.2490 o          1 TTX      -0.538100
     31 H71         -0.3610     0.8640     0.5440 h1         1 TTX       0.100033
     32 H72         -0.3610     0.0390    -1.0210 h1         1 TTX       0.100033
     33 H73         -0.3610    -0.9040     0.4760 h1         1 TTX       0.100033
     34 H161         0.6790    -0.7320     1.7690 ha         1 TTX       0.185000
     35 H221         0.4050    -0.2420     4.6540 ha         1 TTX       0.191500
     36 H211        -1.8760    -0.3800     5.4710 ha         1 TTX       0.131000
     37 H201        -3.7530    -0.3210     3.9100 ha         1 TTX       0.134000
     38 H191        -3.2760    -0.1080     1.5240 ha         1 TTX       0.131000
     39 H181        -1.0150     0.0250     0.7180 ha         1 TTX       0.191500
     40 H51          1.1220     2.0340     0.0480 h1         1 TTX       0.108700
     41 H41          0.4260     3.8560    -1.3120 hc         1 TTX       0.065700
     42 H42          0.6350     2.9130    -2.7660 hc         1 TTX       0.065700
     43 H21         -1.2500     1.4510    -1.7180 hc         1 TTX       0.051700
     44 H11         -2.0340     4.1580    -0.7260 hc         1 TTX       0.040033
     45 H12         -2.7110     2.5750    -0.3230 hc         1 TTX       0.040033
     46 H13         -1.1390     3.0570     0.3290 hc         1 TTX       0.040033
     47 H31         -1.5440     4.1800    -3.0140 hc         1 TTX       0.040033
     48 H32         -2.8340     2.9730    -2.9260 hc         1 TTX       0.040033
     49 H33         -1.3630     2.6290    -3.8450 hc         1 TTX       0.040033
     50 HN21         3.1390     2.4080    -2.1230 hn         1 TTX       0.322500
     51 H91          5.2310     2.3910     0.6820 h1         1 TTX       0.107700
     52 H101         6.6380     4.2390    -0.3630 hc         1 TTX       0.057033
     53 H102         5.0980     4.9740    -0.8300 hc         1 TTX       0.057033
     54 H103         5.4670     4.7030     0.8780 hc         1 TTX       0.057033
     55 H111         6.7480     3.1410    -2.6970 h1         1 TTX       0.053033
     56 H112         5.3450     2.3250    -3.4010 h1         1 TTX       0.053033
     57 H113         5.1450     3.8820    -2.5860 h1         1 TTX       0.053033
     58 H131         5.9810     0.7080     0.7590 h1         1 TTX       0.082200
     59 H132         6.0140    -0.7760    -0.2120 h1         1 TTX       0.082200
     60 HN41         3.5810     0.0170    -0.7740 hn         1 TTX       0.296500
@<TRIPOS>BOND
     1     1     2 1
     2     1    31 1
     3     1    32 1
     4     1    33 1
     5     2     3 1
     6     2    11 1
     7     3     4 2
     8     3    29 1
     9     4     5 1
    10     4    34 1
    11     5     6 ar
    12     5    10 ar
    13     6     7 ar
    14     6    35 1
    15     7     8 ar
    16     7    36 1
    17     8     9 ar
    18     8    37 1
    19     9    10 ar
    20     9    38 1
    21    10    39 1
    22    11    12 2
    23    11    13 1
    24    13    14 1
    25    13    18 1
    26    13    40 1
    27    14    15 1
    28    14    41 1
    29    14    42 1
    30    15    16 1
    31    15    17 1
    32    15    43 1
    33    16    44 1
    34    16    45 1
    35    16    46 1
    36    17    47 1
    37    17    48 1
    38    17    49 1
    39    18    19 1
    40    18    50 1
    41    19    20 2
    42    19    21 1
    43    21    22 1
    44    21    23 1
    45    21    51 1
    46    22    52 1
    47    22    53 1
    48    22    54 1
    49    23    24 1
    50    23    25 1
    51    24    55 1
    52    24    56 1
    53    24    57 1
    54    25    26 2
    55    25    27 1
    56    27    28 1
    57    27    58 1
    58    27    59 1
    59    28    29 1
    60    28    60 1
    61    29    30 2
@<TRIPOS>SUBSTRUCTURE
     1 TTX         1 TEMP              0 ****  ****    0 ROOT
