@<TRIPOS>MOLECULE
TTX
   60    62     1     0     0
SMALL
bcc


@<TRIPOS>ATOM
      1 C7           0.0000     0.0000     0.0000 DU         1 TTX      -0.354000
      2 N1           1.3850     0.0000     0.0000 n          1 TTX       0.082000
      3 C15          2.0550     0.0000     1.1590 c2         1 TTX      -0.145000
      4 C16          1.3640    -0.0990     2.3200 c2         1 TTX      -0.071000
      5 C17         -0.1000    -0.1070     2.6190 ca         1 TTX      -0.019000
      6 C22         -0.4070    -0.2100     3.9370 ca         1 TTX      -0.097000
      7 C21         -1.6950    -0.2950     4.4060 ca         1 TTX      -0.091000
      8 C20         -2.7320    -0.2580     3.5530 ca         1 TTX      -0.097000
      9 C19         -2.4590    -0.1430     2.2340 ca         1 TTX      -0.080000
     10 C18         -1.1840    -0.0660     1.7840 ca         1 TTX      -0.295000
     11 C6           1.5240     0.3950    -1.3870 c2         1 TTX       0.220000
     12 O1           0.6900    -0.1030    -2.4350 o          1 TTX      -0.314000
     13 C5           1.3430     1.9770    -1.0110 c3         1 TTX      -0.057000
     14 C4           0.3290     2.8610    -1.7280 c3         1 TTX      -0.119000
     15 C2          -1.1210     2.5270    -1.7200 c3         1 TTX      -0.094000
     16 C1          -1.7970     3.1200    -0.5280 c3         1 TTX      -0.119500
     17 C3          -1.7620     3.1200    -2.9660 c3         1 TTX      -0.119500
     18 N2           2.7330     2.4980    -1.2130 ns         1 TTX      -0.064000
     19 C8           3.4690     3.0770    -0.2500 c2         1 TTX       0.213000
     20 O2           2.9160     3.7080     0.6260 o          1 TTX      -0.369000
     21 C9           4.9590     2.9490    -0.2050 c3         1 TTX      -0.098000
     22 C10          5.5840     4.3110    -0.1250 c3         1 TTX      -0.124000
     23 N3           5.4610     2.2660    -1.3410 n          1 TTX       0.060000
     24 C11          5.6880     2.9450    -2.5820 c3         1 TTX      -0.114000
     25 C12          5.7800     1.0200    -1.3440 c2         1 TTX       0.173000
     26 O3           6.2280     0.5240    -2.3650 o          1 TTX      -0.401000
     27 C13          5.5560     0.1990    -0.0980 c3         1 TTX      -0.078000
     28 N4           4.1070     0.0520     0.0770 ns         1 TTX      -0.018000
     29 C14          3.3850    -0.0410     1.1850 c2         1 TTX       0.281000
     30 O4           3.9350    -0.1280     2.2490 o          1 TTX      -0.399000
     31 H71         -0.3610    -0.8930     0.4950 ha         1 TTX       0.137333
     32 H72         -0.3610     0.0180    -1.0210 ha         1 TTX       0.137333
     33 H73         -0.3610     0.8760     0.5260 ha         1 TTX       0.137333
     34 H161         1.9720    -0.1010     3.2170 ha         1 TTX       0.142000
     35 H221         0.4050    -0.2420     4.6540 ha         1 TTX       0.106000
     36 H211        -1.8760    -0.3800     5.4710 ha         1 TTX       0.103000
     37 H201        -3.7530    -0.3210     3.9100 ha         1 TTX       0.106000
     38 H191        -3.2760    -0.1080     1.5240 ha         1 TTX       0.099000
     39 H181        -1.0150     0.0250     0.7180 DU         1 TTX       0.239000
     40 H51          1.1220     2.0340     0.0480 h1         1 TTX       0.119000
     41 H41          0.4260     3.8560    -1.3120 hc         1 TTX       0.073500
     42 H42          0.6350     2.9140    -2.7660 hc         1 TTX       0.073500
     43 H21         -1.2500     1.4510    -1.7180 hc         1 TTX       0.078000
     44 H11         -2.6640     2.5230    -0.2710 hc         1 TTX       0.048000
     45 H12         -2.1100     4.1310    -0.7570 hc         1 TTX       0.048000
     46 H13         -1.1080     3.1350     0.3080 hc         1 TTX       0.048000
     47 H31         -1.4010     2.5950    -3.8420 hc         1 TTX       0.048000
     48 H32         -2.8380     3.0180    -2.9020 hc         1 TTX       0.048000
     49 H33         -1.5020     4.1690    -3.0410 hc         1 TTX       0.048000
     50 HN21         3.1380     2.4100    -2.1230 hn         1 TTX       0.104000
     51 H91          5.2310     2.3910     0.6820 h1         1 TTX       0.120000
     52 H101         5.4280     4.7220     0.8660 hc         1 TTX       0.063333
     53 H102         5.1280     4.9620    -0.8610 hc         1 TTX       0.063333
     54 H103         6.6470     4.2330    -0.3200 hc         1 TTX       0.063333
     55 H111         5.3070     2.3430    -3.3980 h1         1 TTX       0.066000
     56 H112         6.7510     3.1050    -2.7170 h1         1 TTX       0.066000
     57 H113         5.1790     3.9010    -2.5700 h1         1 TTX       0.066000
     58 H131         6.0140    -0.7760    -0.2120 h1         1 TTX       0.091000
     59 H132         5.9810     0.7080     0.7590 h1         1 TTX       0.091000
     60 HN41         3.5810     0.0130    -0.7740 hn         1 TTX       0.075000
@<TRIPOS>BOND
     1     1     2 1   
     2     1    31 1   
     3     1    32 1   
     4     1    33 1   
     5     1    39 1   
     6     2     3 1   
     7     2    11 1   
     8     3     4 1   
     9     3    29 1   
    10     4     5 1   
    11     4    34 1   
    12     5     6 1   
    13     5    10 1   
    14     6     7 1   
    15     6    35 1   
    16     7     8 1   
    17     7    36 1   
    18     8     9 1   
    19     8    37 1   
    20     9    10 1   
    21     9    38 1   
    22    10    39 1   
    23    11    12 1   
    24    11    13 1   
    25    13    14 1   
    26    13    18 1   
    27    13    40 1   
    28    14    15 1   
    29    14    41 1   
    30    14    42 1   
    31    15    16 1   
    32    15    17 1   
    33    15    43 1   
    34    16    44 1   
    35    16    45 1   
    36    16    46 1   
    37    17    47 1   
    38    17    48 1   
    39    17    49 1   
    40    18    19 1   
    41    18    50 1   
    42    19    20 1   
    43    19    21 1   
    44    21    22 1   
    45    21    23 1   
    46    21    51 1   
    47    22    52 1   
    48    22    53 1   
    49    22    54 1   
    50    23    24 1   
    51    23    25 1   
    52    24    55 1   
    53    24    56 1   
    54    24    57 1   
    55    25    26 1   
    56    25    27 1   
    57    27    28 1   
    58    27    58 1   
    59    27    59 1   
    60    28    29 1   
    61    28    60 1   
    62    29    30 1   
@<TRIPOS>SUBSTRUCTURE
     1 TTX         1 TEMP              0 ****  ****    0 ROOT
