@<TRIPOS>MOLECULE
TTY
   20    21     1     0     0
SMALL
bcc


@<TRIPOS>ATOM
      1 OAA         0.4970    0.8240    0.2800 o         1 TTY     -0.816800
      2 CAI         1.2620   -0.1540    0.0540 c         1 TTY      0.935200
      3 OAC         1.3530   -1.1840    0.7750 o         1 TTY     -0.816800
      4 CAK         2.0900   -0.1140   -1.2130 cc        1 TTY     -0.150900
      5 CAM         3.5220    0.0350   -1.3760 cc        1 TTY     -0.267900
      6 CAJ         4.6180    0.2450   -0.4450 c         1 TTY      0.612700
      7 OAB         4.5380    0.6220    0.7260 o         1 TTY     -0.516100
      8 CAF         5.9790   -0.0440   -1.0620 c3        1 TTY     -0.190400
      9 CAE         6.1310    0.5250   -2.4580 c3        1 TTY     -0.064400
     10 CAG         5.0820   -0.0040   -3.4260 c3        1 TTY     -0.106700
     11 CAL         3.7820   -0.0570   -2.7440 cd        1 TTY      0.243000
     12 OAH         2.6110   -0.2380   -3.4560 os        1 TTY     -0.379800
     13 CAD         1.5830   -0.2710   -2.4900 cd        1 TTY      0.187600
     14 H2          6.7800    0.3740   -0.3980 hc        1 TTY      0.057200
     15 H3          6.1030   -1.1590   -1.0890 hc        1 TTY      0.057200
     16 H4          7.1500    0.2750   -2.8510 hc        1 TTY      0.037200
     17 H5          6.0530    1.6430   -2.4080 hc        1 TTY      0.037200
     18 H6          5.3600   -1.0360   -3.7710 hc        1 TTY      0.049200
     19 H7          5.0280    0.6510   -4.3350 hc        1 TTY      0.049200
     20 H8          0.5930   -0.4050   -2.9060 h4        1 TTY      0.044100
@<TRIPOS>BOND
     1    1    2 1   
     2    2    3 1   
     3    2    4 1   
     4    4    5 1   
     5    4   13 2   
     6    5    6 1   
     7    5   11 2   
     8    6    7 2   
     9    6    8 1   
    10    8    9 1   
    11    8   14 1   
    12    8   15 1   
    13    9   10 1   
    14    9   16 1   
    15    9   17 1   
    16   10   11 1   
    17   10   18 1   
    18   10   19 1   
    19   11   12 1   
    20   12   13 1   
    21   13   20 1   
@<TRIPOS>SUBSTRUCTURE
     1 TTY         1 TEMP              0 ****  ****    0 ROOT
