@<TRIPOS>MOLECULE
TTZ
   48    50     1     0     0
SMALL
bcc


@<TRIPOS>ATOM
      1 O7         -0.4120    0.3330    0.6060 oh        1 TTZ     -0.615800
      2 C7          0.9540    0.1740    0.2950 c3        1 TTZ      0.110400
      3 C5          1.8580    0.0640    1.5340 c3        1 TTZ      0.132800
      4 O5          1.4190   -1.0030    2.3530 oh        1 TTZ     -0.584800
      5 C4          3.3410   -0.1030    1.1090 c3        1 TTZ      0.114100
      6 O4          3.3920   -0.8050   -0.1110 oh        1 TTZ     -0.590800
      7 C3          3.8920    1.3370    0.9630 c3        1 TTZ      0.119100
      8 O3          5.2630    1.2790    1.2920 oh        1 TTZ     -0.577800
      9 C2          3.1090    2.1800    1.9720 c3        1 TTZ     -0.058600
     10 S1          2.3970    3.6860    1.2930 ss        1 TTZ     -0.187300
     11 C6          1.9050    1.3190    2.4690 c3        1 TTZ      0.109500
     12 N1          0.6780    2.0860    2.4870 n2        1 TTZ     -0.474900
     13 C1          0.8100    3.2310    1.8740 c2        1 TTZ      0.468100
     14 N1'        -0.3090    4.1500    1.6670 n4        1 TTZ     -0.743000
     15 C1'        -1.6020    3.4320    1.2230 c3        1 TTZ      0.346300
     16 C2'        -2.4060    4.3000    0.2250 c3        1 TTZ      0.105100
     17 O2'        -1.4890    4.8300   -0.7140 oh        1 TTZ     -0.623800
     18 O5'        -2.3420    3.0500    2.3430 os        1 TTZ     -0.369600
     19 C5'        -3.0960    4.0630    3.0330 c3        1 TTZ      0.041100
     20 C6'        -3.9020    3.2810    4.0840 c3        1 TTZ      0.141400
     21 O6'        -3.0420    2.7520    5.0610 oh        1 TTZ     -0.575800
     22 C4'        -4.0040    4.8480    2.0810 c3        1 TTZ      0.083100
     23 O4'        -4.5580    5.9710    2.7400 oh        1 TTZ     -0.586800
     24 C3'        -3.1610    5.4310    0.9350 c3        1 TTZ      0.105100
     25 O3'        -3.9740    6.0260   -0.0560 oh        1 TTZ     -0.590800
     26 H7         -0.6470   -0.3570    1.2420 ho        1 TTZ      0.429000
     27 H7C1        1.0950   -0.7520   -0.3290 h1        1 TTZ      0.074200
     28 H7C2        1.2320    1.0750   -0.3120 h1        1 TTZ      0.074200
     29 H5          1.5990   -1.8230    1.8700 ho        1 TTZ      0.434000
     30 H4          3.9110   -0.6510    1.9110 h1        1 TTZ      0.092700
     31 H6          2.0830    0.9540    3.5260 h1        1 TTZ      0.150700
     32 HA          4.3240   -0.9990   -0.2830 ho        1 TTZ      0.437000
     33 H3          3.7400    1.7100   -0.0870 h1        1 TTZ      0.081700
     34 HB          5.6800    2.0870    0.9670 ho        1 TTZ      0.423000
     35 H2          3.7750    2.4630    2.8260 h1        1 TTZ      0.130700
     36 H1'        -0.0420    4.8140    0.9220 hn        1 TTZ      0.474800
     37 HC         -1.2940    2.4440    0.7330 hx        1 TTZ      0.189700
     38 H2'        -3.1400    3.6140   -0.2890 h1        1 TTZ      0.114700
     39 HD         -2.0060    5.3430   -1.3560 ho        1 TTZ      0.471000
     40 H3'        -2.4430    6.1980    1.3430 h1        1 TTZ      0.055700
     41 H5'        -2.3890    4.7630    3.5570 h1        1 TTZ      0.067700
     42 H6'1       -4.5690    4.0010    4.6330 h1        1 TTZ      0.073200
     43 H6'2       -4.5090    2.4820    3.5860 h1        1 TTZ      0.073200
     44 H4'        -4.8110    4.1820    1.6660 h1        1 TTZ      0.083700
     45 H6'        -2.6030    1.9810    4.6760 ho        1 TTZ      0.419000
     46 HE         -5.2980    5.6590    3.2800 ho        1 TTZ      0.432000
     47 HF         -4.5250    6.6880    0.3890 ho        1 TTZ      0.449000
     48 H1'2       -0.4870    4.6620    2.5400 hn        1 TTZ      0.474800
@<TRIPOS>BOND
     1    1    2 1   
     2    1   26 1   
     3    2    3 1   
     4    2   27 1   
     5    2   28 1   
     6    3    4 1   
     7    3    5 1   
     8    3   11 1   
     9    4   29 1   
    10    5    6 1   
    11    5    7 1   
    12    5   30 1   
    13    6   32 1   
    14    7    8 1   
    15    7    9 1   
    16    7   33 1   
    17    8   34 1   
    18    9   10 1   
    19    9   11 1   
    20    9   35 1   
    21   10   13 1   
    22   11   12 1   
    23   11   31 1   
    24   12   13 2   
    25   13   14 1   
    26   14   15 1   
    27   14   36 1   
    28   14   48 1   
    29   15   16 1   
    30   15   18 1   
    31   15   37 1   
    32   16   17 1   
    33   16   24 1   
    34   16   38 1   
    35   17   39 1   
    36   18   19 1   
    37   19   20 1   
    38   19   22 1   
    39   19   41 1   
    40   20   21 1   
    41   20   42 1   
    42   20   43 1   
    43   21   45 1   
    44   22   23 1   
    45   22   24 1   
    46   22   44 1   
    47   23   46 1   
    48   24   25 1   
    49   24   40 1   
    50   25   47 1   
@<TRIPOS>SUBSTRUCTURE
     1 TTZ         1 TEMP              0 ****  ****    0 ROOT
