@<TRIPOS>MOLECULE
molecule
   20    20     1     0     0
SMALL
bcc


@<TRIPOS>ATOM
      1 Br           0.0000     0.0000     0.0000 br         1 TU0      -0.123100
      2 C4           1.8910     0.0000     0.0000 ca         1 TU0      -0.034900
      3 C3           2.5810     0.0000     1.2010 ca         1 TU0      -0.105000
      4 C2           3.9630     0.0010     1.2110 ca         1 TU0      -0.189000
      5 C5           2.5780    -0.0050    -1.1970 ca         1 TU0      -0.076000
      6 C6           3.9740    -0.0040    -1.1980 ca         1 TU0      -0.049800
      7 C1           4.6670     0.0020     0.0180 ca         1 TU0       0.122100
      8 O13          6.0260     0.0030     0.0280 oh         1 TU0      -0.502100
      9 C7           4.7150    -0.0100    -2.4760 ce         1 TU0      -0.060200
     10 C8           4.0540    -0.0160    -3.6250 c2         1 TU0      -0.307100
     11 S9           4.9390    -0.0220    -5.1500 s6         1 TU0       1.309700
     12 O10          4.6340    -1.3430    -5.8420 o          1 TU0      -0.709200
     13 O11          4.3600     0.9960    -5.9540 o          1 TU0      -0.709200
     14 O12          6.3190    -0.0550    -4.8130 o          1 TU0      -0.709200
     15 H3           2.0350    -0.0010     2.1360 ha         1 TU0       0.130000
     16 H5           2.0350    -0.0100    -2.1340 ha         1 TU0       0.165000
     17 H2           4.4970     0.0030     2.1540 ha         1 TU0       0.128000
     18 H7           5.7980    -0.0100    -2.4730 ha         1 TU0       0.170000
     19 H13          6.3360     0.7690     0.4820 ho         1 TU0       0.413000
     20 H8           2.9710    -0.0160    -3.6280 h4         1 TU0       0.136000
@<TRIPOS>BOND
     1     1     2 1
     2     2     3 ar
     3     2     5 ar
     4     3     4 ar
     5     4     7 ar
     6     5     6 ar
     7     6     7 ar
     8     6     9 1
     9     7     8 1
    10     9    10 2
    11    10    11 1
    12    11    12 1
    13    11    13 1
    14    11    14 1
    15     3    15 1
    16     5    16 1
    17     4    17 1
    18     9    18 1
    19     8    19 1
    20    10    20 1
@<TRIPOS>SUBSTRUCTURE
     1 TU0         1 TEMP              0 ****  ****    0 ROOT
