@<TRIPOS>MOLECULE
TU0
   20    20     1     0     0
SMALL
bcc


@<TRIPOS>ATOM
      1 BR          0.1870    0.9460   -0.5700 br        1 TU0     -0.119100
      2 C4          1.9920    0.4790   -0.3520 ca        1 TU0     -0.058900
      3 C3          2.6100    0.7050    0.8800 ca        1 TU0     -0.090000
      4 C2          3.9460    0.3710    1.0620 ca        1 TU0     -0.179000
      5 C5          2.7030   -0.0900   -1.4130 ca        1 TU0     -0.039000
      6 C6          4.0400   -0.4710   -1.2390 ca        1 TU0     -0.113800
      7 C1          4.6590   -0.2120    0.0020 ca        1 TU0      0.138100
      8 O13         5.9740   -0.5260    0.2620 oh        1 TU0     -0.518100
      9 C7          4.7780   -1.1850   -2.2750 ce        1 TU0     -0.058200
     10 C8          4.8850   -0.8970   -3.5680 c2        1 TU0     -0.308100
     11 S9          4.2580    0.4130   -4.5730 s6        1 TU0      1.449700
     12 O10         4.6630    0.0310   -5.8750 o         1 TU0     -0.744200
     13 O11         2.8560    0.3850   -4.3830 o         1 TU0     -0.744200
     14 O12         4.8890    1.5840   -4.1030 o         1 TU0     -0.744200
     15 H3          2.0500    1.1560    1.7130 ha        1 TU0      0.129000
     16 H5          2.2340   -0.2240   -2.4110 ha        1 TU0      0.215000
     17 H2          4.4540    0.5580    2.0170 ha        1 TU0      0.136000
     18 H7          5.2890   -2.0840   -1.8690 ha        1 TU0      0.080000
     19 H13         6.4190   -0.6680   -0.5880 ho        1 TU0      0.432000
     20 H8          5.4890   -1.5940   -4.1810 h4        1 TU0      0.134000
@<TRIPOS>BOND
     1    1    2 1   
     2    2    3 ar  
     3    2    5 ar  
     4    3    4 ar  
     5    3   15 1   
     6    4    7 ar  
     7    4   17 1   
     8    5    6 ar  
     9    5   16 1   
    10    6    7 ar  
    11    6    9 1   
    12    7    8 1   
    13    8   19 1   
    14    9   10 2   
    15    9   18 1   
    16   10   11 1   
    17   10   20 1   
    18   11   12 1   
    19   11   13 1   
    20   11   14 1   
@<TRIPOS>SUBSTRUCTURE
     1 TU0         1 TEMP              0 ****  ****    0 ROOT
