@<TRIPOS>MOLECULE
molecule
   59    63     1     0     0
SMALL
bcc


@<TRIPOS>ATOM
      1 C4           0.0000     0.0000     0.0000 ca         1 TU1      -0.275800
      2 F2          -6.3480    -8.6770    -6.9950 f          1 TU1      -0.133900
      3 N1           2.0560     0.0000     1.1330 nb         1 TU1      -0.707000
      4 O1          -4.7830    -3.1780     0.3300 o          1 TU1      -0.585100
      5 C3           1.3800     0.0000     0.0000 ca         1 TU1       0.436200
      6 F3          -5.5110    -5.3900    -0.5630 f          1 TU1      -0.103900
      7 C2           1.4510    -0.0000     2.3060 ca         1 TU1       0.436200
      8 C7          -4.2790    -0.5290     0.2800 c3         1 TU1       0.050700
      9 N3          -4.8040    -1.2970    -0.8520 ns         1 TU1      -0.556900
     10 C1           0.0740     0.0120     2.3920 ca         1 TU1      -0.275800
     11 N4          -8.3410     1.1790    -0.3040 na         1 TU1      -0.178400
     12 C5          -0.6770     0.0060     1.2180 ca         1 TU1       0.094600
     13 C6          -2.7760    -0.6270     0.3010 c          1 TU1       0.643100
     14 C9          -5.5500    -3.3940    -1.8640 ca         1 TU1      -0.176600
     15 C10         -5.8180    -2.7570    -3.0780 ca         1 TU1      -0.080000
     16 C11         -6.3110    -3.4790    -4.1410 ca         1 TU1      -0.133000
     17 C12         -6.5410    -4.8490    -4.0090 cp         1 TU1       0.004000
     18 C13         -7.0720    -5.6240    -5.1560 cp         1 TU1      -0.058000
     19 C14         -8.1940    -5.1700    -5.8500 ca         1 TU1       0.129900
     20 C15         -8.6840    -5.8970    -6.9190 ca         1 TU1      -0.141000
     21 C16         -8.0630    -7.0720    -7.3010 ca         1 TU1      -0.138000
     22 C17         -6.9500    -7.5280    -6.6160 ca         1 TU1       0.122900
     23 C18         -6.4480    -6.8070    -5.5490 ca         1 TU1      -0.130000
     24 C19         -6.2740    -5.4900    -2.8000 ca         1 TU1      -0.167000
     25 C20         -5.7760    -4.7700    -1.7330 ca         1 TU1       0.199900
     26 C21         -4.6930     0.9380     0.1370 c3         1 TU1      -0.009200
     27 C22         -6.1920     1.0490     0.2390 cc         1 TU1      -0.165400
     28 C23         -7.0620     1.0770    -0.7820 cd         1 TU1      -0.087100
     29 C24         -8.3220     1.2270     1.0720 ca         1 TU1      -0.034200
     30 C29         -9.3160     1.3270     2.0400 ca         1 TU1      -0.139000
     31 C28         -8.9730     1.3520     3.3740 ca         1 TU1      -0.105000
     32 C27         -7.6430     1.2770     3.7630 ca         1 TU1      -0.150000
     33 C26         -6.6500     1.1780     2.8300 ca         1 TU1      -0.082000
     34 C25         -6.9760     1.1510     1.4720 ca         1 TU1      -0.096800
     35 F1          -8.8020    -4.0220    -5.4770 f          1 TU1      -0.133900
     36 H2          -2.5490     0.4460     2.0220 hn         1 TU1       0.326500
     37 H7          -4.6800    -0.9280     1.2040 h1         1 TU1       0.108700
     38 H4          -0.5490     0.0000    -0.9340 ha         1 TU1       0.150000
     39 H1          -0.4160     0.0140     3.3580 ha         1 TU1       0.150000
     40 H3           1.9150    -0.0020    -0.9420 h4         1 TU1       0.024100
     41 HA           2.0430     0.0020     3.2130 h4         1 TU1       0.024100
     42 H211        -4.2330     1.5210     0.9260 hc         1 TU1       0.056700
     43 H212        -4.3670     1.3120    -0.8260 hc         1 TU1       0.056700
     44 HB          -4.9560    -0.8480    -1.7330 hn         1 TU1       0.316500
     45 H23         -6.7930     1.0280    -1.8300 h4         1 TU1       0.160000
     46 H26         -5.6140     1.1210     3.1420 ha         1 TU1       0.123000
     47 H27         -7.3900     1.2980     4.8170 ha         1 TU1       0.131000
     48 H28         -9.7480     1.4300     4.1260 ha         1 TU1       0.133000
     49 H29        -10.3570     1.3850     1.7460 ha         1 TU1       0.128000
     50 HC          -9.1650     1.2170    -0.8700 hn         1 TU1       0.299700
     51 H10         -5.6400    -1.6930    -3.1820 ha         1 TU1       0.131000
     52 H19         -6.4540    -6.5540    -2.6990 ha         1 TU1       0.157000
     53 H11         -6.5190    -2.9840    -5.0820 ha         1 TU1       0.145000
     54 H18         -5.5260    -7.1170    -5.0710 ha         1 TU1       0.161000
     55 H16         -8.4510    -7.6390    -8.1390 ha         1 TU1       0.154000
     56 H15         -9.5550    -5.5450    -7.4580 ha         1 TU1       0.155000
     57 N2          -2.0720     0.0050     1.2610 ns         1 TU1      -0.478100
     58 C8          -5.0210    -2.6210    -0.7250 c          1 TU1       0.683700
     59 O2          -2.1990    -1.2750    -0.5460 o          1 TU1      -0.573100
@<TRIPOS>BOND
     1    59    13 2
     2    13    57 1
     3    13     8 1
     4    57    12 1
     5    12     1 ar
     6    12    10 ar
     7     1     5 ar
     8     5     3 ar
     9     3     7 ar
    10     7    10 ar
    11     8    26 1
    12     8     9 1
    13    26    27 1
    14    27    34 1
    15    27    28 2
    16    34    33 ar
    17    34    29 ar
    18    33    32 ar
    19    32    31 ar
    20    31    30 ar
    21    30    29 ar
    22    29    11 1
    23    11    28 1
    24     9    58 1
    25    58     4 2
    26    58    14 1
    27    14    25 ar
    28    14    15 ar
    29    25     6 1
    30    25    24 ar
    31    24    17 ar
    32    17    16 ar
    33    17    18 1
    34    16    15 ar
    35    18    23 ar
    36    18    19 ar
    37    23    22 ar
    38    22     2 1
    39    22    21 ar
    40    21    20 ar
    41    20    19 ar
    42    19    35 1
    43    57    36 1
    44     8    37 1
    45     1    38 1
    46    10    39 1
    47     5    40 1
    48     7    41 1
    49    26    42 1
    50    26    43 1
    51     9    44 1
    52    28    45 1
    53    33    46 1
    54    32    47 1
    55    31    48 1
    56    30    49 1
    57    11    50 1
    58    15    51 1
    59    24    52 1
    60    16    53 1
    61    23    54 1
    62    21    55 1
    63    20    56 1
@<TRIPOS>SUBSTRUCTURE
     1 TU1         1 TEMP              0 ****  ****    0 ROOT
