@<TRIPOS>MOLECULE
TUC
   23    23     1     0     0
SMALL
bcc


@<TRIPOS>ATOM
      1 C1          0.4250   -0.1470   -0.4620 c2        1 TUC     -0.031000
      2 C2          1.6640    0.1120   -0.0000 c2        1 TUC     -0.129000
      3 C3          2.1200    0.1150    1.3760 c2        1 TUC      0.098000
      4 C4          1.4350    0.6900    2.4190 c2        1 TUC     -0.242000
      5 C5         -1.6450   -0.8220    0.8750 c1        1 TUC      0.078000
      6 C6          3.4380   -0.4650    1.6280 c2        1 TUC      0.056000
      7 C7          4.0060   -0.3950    2.8590 c2        1 TUC     -0.201000
      8 C8          3.2960    0.2490    3.9830 c3        1 TUC     -0.182000
      9 C9          1.9510    0.7580    3.7310 c1        1 TUC     -0.128000
     10 C10         5.3140   -0.7700    0.1840 c3        1 TUC     -0.095000
     11 C11         5.3720    0.5440   -0.6170 c2        1 TUC      0.317000
     12 N1         -0.6800   -0.5050    0.2700 n2        1 TUC     -0.282000
     13 O1          3.9900   -1.1670    0.5750 os        1 TUC     -0.230000
     14 O3          4.3490    0.9410   -1.2440 o         1 TUC     -0.566500
     15 H1          2.4860    0.3400   -0.7340 ha        1 TUC      0.250000
     16 H2          0.2240   -0.1030   -1.5530 h4        1 TUC      0.146000
     17 H5          0.4460    1.1430    2.2440 ha        1 TUC      0.138000
     18 H7          3.2260   -0.4740    4.8480 hc        1 TUC      0.142500
     19 H8          5.0100   -0.7980    3.0470 ha        1 TUC      0.133000
     20 H9          3.9040    1.1280    4.3550 hc        1 TUC      0.142500
     21 H101        5.9810   -0.7150    1.0800 h1        1 TUC      0.077000
     22 H102        5.6320   -1.6180   -0.4790 h1        1 TUC      0.077000
     23 OXT         6.4850    1.1380   -0.6230 o         1 TUC     -0.566500
@<TRIPOS>BOND
     1    1    2 1   
     2    1   12 1   
     3    1   16 1   
     4    2    3 1   
     5    2   15 1   
     6    3    4 1   
     7    3    6 1   
     8    4    9 1   
     9    4   17 1   
    10    5   12 1   
    11    6    7 1   
    12    6   13 1   
    13    7    8 1   
    14    7   19 1   
    15    8    9 1   
    16    8   18 1   
    17    8   20 1   
    18   10   11 1   
    19   10   13 1   
    20   10   21 1   
    21   10   22 1   
    22   11   14 1   
    23   11   23 1   
@<TRIPOS>SUBSTRUCTURE
     1 TUC         1 TEMP              0 ****  ****    0 ROOT
