@<TRIPOS>MOLECULE
molecule
   23    24     1     0     0
SMALL
bcc


@<TRIPOS>ATOM
      1 C1           0.0000     0.0000     0.0000 ca         1 TUC       0.363200
      2 C2           1.3630     0.0000     0.0000 ca         1 TUC      -0.183300
      3 C3           2.0360     0.0000     1.2340 ca         1 TUC      -0.047000
      4 C4           1.2620     0.0000     2.4220 ca         1 TUC      -0.125300
      5 C5          -0.1380     0.0000     2.3120 ca         1 TUC       0.406200
      6 C6           3.4410    -0.0000     1.3210 ca         1 TUC       0.184100
      7 C7           4.0360     0.0000     2.5530 ca         1 TUC      -0.257000
      8 C8           3.2720    -0.0000     3.7170 ca         1 TUC      -0.072000
      9 C9           1.9110    -0.0000     3.6680 ca         1 TUC      -0.191000
     10 C10          5.6170    -0.0000     0.3650 c3         1 TUC       0.018400
     11 C11          6.2860    -0.0000    -0.9840 c          1 TUC       0.895600
     12 N1          -0.7000    -0.0010     1.1250 nb         1 TUC      -0.698000
     13 O1           4.1980    -0.0000     0.1940 os         1 TUC      -0.280900
     14 O3           5.6170    -0.0000    -1.9910 o          1 TUC      -0.824800
     15 H1          -0.5260    -0.0010    -0.9470 h4         1 TUC       0.012100
     16 H2           1.9160     0.0010    -0.9320 ha         1 TUC       0.171000
     17 H5          -0.7530    -0.0010     3.2040 h4         1 TUC       0.013100
     18 H7           5.1170     0.0000     2.6230 ha         1 TUC       0.147000
     19 H8           3.7690    -0.0000     4.6800 ha         1 TUC       0.115000
     20 H9           1.3320    -0.0000     4.5830 ha         1 TUC       0.119000
     21 H101         5.9140     0.8840     0.9160 h1         1 TUC       0.030700
     22 H102         5.9140    -0.8840     0.9160 h1         1 TUC       0.030700
     23 OXT          7.6260    -0.0000    -1.0700 o          1 TUC      -0.824800
@<TRIPOS>BOND
     1     1     2 ar
     2     1    12 ar
     3     1    15 1
     4     2     3 ar
     5     2    16 1
     6     3     4 ar
     7     3     6 ar
     8     4     5 ar
     9     4     9 ar
    10     5    12 ar
    11     5    17 1
    12     6     7 ar
    13     6    13 1
    14     7     8 ar
    15     7    18 1
    16     8     9 ar
    17     8    19 1
    18     9    20 1
    19    10    11 1
    20    10    13 1
    21    10    21 1
    22    10    22 1
    23    11    14 1
    24    11    23 1
@<TRIPOS>SUBSTRUCTURE
     1 TUC         1 TEMP              0 ****  ****    0 ROOT
