@<TRIPOS>MOLECULE
molecule
   38    40     1     0     0
SMALL
bcc


@<TRIPOS>ATOM
      1 N01          0.0000     0.0000     0.0000 nb         1 TUE      -0.701000
      2 C02          1.3170     0.0000     0.0000 ca         1 TUE       0.689200
      3 N02          1.9940    -0.0000    -1.2110 nv         1 TUE      -1.085500
      4 C03          2.0510     0.0000     1.1950 ca         1 TUE      -0.251300
      5 C04          1.4000     0.0010     2.3910 ca         1 TUE      -0.081000
      6 C05         -0.0100    -0.0000     2.3850 ca         1 TUE      -0.155300
      7 C06         -0.7440     0.0000     3.5800 ca         1 TUE      -0.110000
      8 C07         -2.1050     0.0000     3.5360 ca         1 TUE      -0.111000
      9 C08         -2.7800    -0.0000     2.3170 ca         1 TUE      -0.087300
     10 C09         -2.0980    -0.0010     1.1380 ca         1 TUE      -0.136300
     11 C10         -0.6940    -0.0000     1.1440 ca         1 TUE       0.426600
     12 C11         -4.2860    -0.0010     2.3040 c3         1 TUE       0.184700
     13 O12         -4.7630     1.3470     2.2990 os         1 TUE      -0.317900
     14 N21         -8.2720     0.5980     2.2690 nb         1 TUE      -0.656000
     15 C22         -6.9650     0.4310     2.2800 ca         1 TUE       0.330200
     16 C23         -6.1100     1.5240     2.2870 ca         1 TUE       0.018800
     17 C24         -6.6530     2.8050     2.2820 ca         1 TUE      -0.105000
     18 C25         -8.0330     2.9360     2.2690 ca         1 TUE      -0.168600
     19 C26         -8.8190     1.7990     2.2630 ca         1 TUE       0.383200
     20 C27         -8.6690     4.3020     2.2640 c3         1 TUE       0.152100
     21 N28         -8.8630     4.7450     0.8810 n2         1 TUE      -0.592900
     22 C29        -10.0460     4.9140     0.4240 c2         1 TUE       0.428100
     23 HN02         2.2260     0.8670    -1.6550 hn         1 TUE       0.437300
     24 HN0A         2.2250    -0.8670    -1.6550 hn         1 TUE       0.437300
     25 H03          3.1340     0.0000     1.1660 ha         1 TUE       0.143000
     26 H04          1.9520     0.0010     3.3230 ha         1 TUE       0.140000
     27 H06         -0.2300     0.0010     4.5340 ha         1 TUE       0.135000
     28 H07         -2.6700     0.0010     4.4600 ha         1 TUE       0.135000
     29 H09         -2.6380    -0.0020     0.1990 ha         1 TUE       0.154000
     30 H11         -4.6400    -0.5120     1.4170 h1         1 TUE       0.044200
     31 H11A        -4.6550    -0.5110     3.1860 h1         1 TUE       0.044200
     32 H24         -6.0130     3.6790     2.2870 ha         1 TUE       0.158000
     33 H26         -9.8980     1.8950     2.2530 h4         1 TUE       0.021100
     34 H27         -9.6280     4.2560     2.7660 h1         1 TUE       0.051700
     35 H27A        -8.0240     5.0030     2.7800 h1         1 TUE       0.051700
     36 H29        -10.1890     5.2420    -0.5990 h4         1 TUE      -0.015700
     37 H29A       -10.9040     4.7310     1.0590 h4         1 TUE      -0.015700
     38 H22         -6.5530    -0.5710     2.2840 h4         1 TUE       0.025100
@<TRIPOS>BOND
     1     1     2 ar
     2     1    11 ar
     3     2     3 1
     4     2     4 ar
     5     4     5 ar
     6     5     6 ar
     7     6     7 ar
     8     6    11 ar
     9     7     8 ar
    10     8     9 ar
    11     9    10 ar
    12     9    12 1
    13    10    11 ar
    14    12    13 1
    15    13    16 1
    16    14    15 ar
    17    14    19 ar
    18    15    16 ar
    19    16    17 ar
    20    17    18 ar
    21    18    19 ar
    22    18    20 1
    23    20    21 1
    24    21    22 2
    25     3    23 1
    26     3    24 1
    27     4    25 1
    28     5    26 1
    29     7    27 1
    30     8    28 1
    31    10    29 1
    32    12    30 1
    33    12    31 1
    34    15    38 1
    35    17    32 1
    36    19    33 1
    37    20    34 1
    38    20    35 1
    39    22    36 1
    40    22    37 1
@<TRIPOS>SUBSTRUCTURE
     1 TUE         1 TEMP              0 ****  ****    0 ROOT
