@<TRIPOS>MOLECULE
molecule
   47    50     1     0     0
SMALL
bcc


@<TRIPOS>ATOM
      1 C4           0.0000     0.0000     0.0000 ca         1 TUH      -0.157900
      2 C5           1.4010     0.0000     0.0000 ca         1 TUH       0.176100
      3 C6           2.0890     0.0000     1.2010 ca         1 TUH      -0.264000
      4 C7          -0.7410     0.0000    -1.2780 cc         1 TUH       0.442500
      5 C13          1.3130    -2.1080    -3.1740 ca         1 TUH      -0.073000
      6 C15          2.1680    -3.1870    -3.1710 ca         1 TUH      -0.140000
      7 C17          0.8960    -4.1690    -1.3660 ca         1 TUH      -0.101800
      8 C20          2.0180    -6.0980    -1.0220 cc         1 TUH      -0.098100
      9 C21          3.8260    -5.8690    -2.7540 c3         1 TUH       0.040600
     10 C24         -1.5510    -1.2970     3.8350 c3         1 TUH      -0.086600
     11 C1           1.3920    -0.0000     2.4000 ca         1 TUH       0.167100
     12 C2           0.0030    -0.0010     2.4020 ca         1 TUH      -0.120300
     13 C3          -0.6920    -0.0050     1.2110 ca         1 TUH      -0.040000
     14 N8          -0.6100    -0.9340    -2.2880 n          1 TUH      -0.285500
     15 C9          -1.4500    -0.5960    -3.2880 c          1 TUH       0.765500
     16 N10         -2.0960     0.5270    -2.9170 ns         1 TUH      -0.333900
     17 N11         -1.6340     0.8790    -1.6410 nd         1 TUH      -0.500300
     18 C12          0.2490    -2.0440    -2.2760 ca         1 TUH       0.030600
     19 C14          0.0370    -3.0680    -1.3720 ca         1 TUH      -0.068000
     20 C16          1.9740    -4.2270    -2.2670 ca         1 TUH      -0.028200
     21 C18          0.9710    -5.3940    -0.5650 cd         1 TUH      -0.196200
     22 N19          2.6370    -5.4120    -2.0310 na         1 TUH      -0.075400
     23 C23         -1.6990     1.1960     3.7520 c3         1 TUH      -0.086600
     24 O25          2.0700    -0.0020     3.5770 oh         1 TUH      -0.500100
     25 O26          2.0820     0.0000    -1.1750 oh         1 TUH      -0.500100
     26 O27         -1.5960    -1.1970    -4.3370 o          1 TUH      -0.651500
     27 H6           3.1720     0.0000     1.2040 ha         1 TUH       0.144000
     28 H13          1.4670    -1.3030    -3.8820 ha         1 TUH       0.145000
     29 H15          2.9910    -3.2270    -3.8740 ha         1 TUH       0.129000
     30 H20          2.3270    -7.0670    -0.6480 h4         1 TUH       0.164000
     31 H21          3.5920    -5.9700    -3.8070 h1         1 TUH       0.048367
     32 H21A         4.1420    -6.8280    -2.3610 h1         1 TUH       0.048367
     33 H21B         4.6250    -5.1480    -2.6300 h1         1 TUH       0.048367
     34 H22         -0.0450     0.0700     4.5310 hc         1 TUH       0.072700
     35 H24         -2.3880    -1.2710     3.1490 hc         1 TUH       0.036867
     36 H24A        -0.9060    -2.1310     3.5860 hc         1 TUH       0.036867
     37 H24B        -1.9170    -1.4130     4.8480 hc         1 TUH       0.036867
     38 H3          -1.7760    -0.0050     1.2160 ha         1 TUH       0.156000
     39 HN10        -2.7850     1.0170    -3.4530 hn         1 TUH       0.389500
     40 H14         -0.7900    -3.0180    -0.6740 ha         1 TUH       0.139000
     41 H18          0.2960    -5.6870     0.2300 ha         1 TUH       0.155000
     42 H23         -1.9980     1.3840     4.7760 hc         1 TUH       0.036867
     43 H23A        -2.5780     0.9920     3.1510 hc         1 TUH       0.036867
     44 H23B        -1.1880     2.0670     3.3600 hc         1 TUH       0.036867
     45 HO25         2.8280     0.5540     3.5050 ho         1 TUH       0.424000
     46 HO26         2.6760     0.7320    -1.1940 ho         1 TUH       0.424000
     47 C22         -0.7470    -0.0010     3.7090 c3         1 TUH      -0.025400
@<TRIPOS>BOND
     1    13     1 ar
     2     4     1 1
     3     1     2 ar
     4     2     3 ar
     5     2    25 1
     6    11     3 ar
     7     3    27 1
     8    14     4 1
     9     4    17 2
    10     6     5 ar
    11     5    18 ar
    12     5    28 1
    13    20     6 ar
    14     6    29 1
    15    21     7 1
    16     7    20 ar
    17     7    19 ar
    18     8    21 2
    19     8    22 1
    20     8    30 1
    21     9    22 1
    22     9    31 1
    23     9    32 1
    24     9    33 1
    25    10    47 1
    26    47    23 1
    27    47    12 1
    28    47    34 1
    29    10    35 1
    30    10    36 1
    31    10    37 1
    32    12    11 ar
    33    11    24 1
    34    13    12 ar
    35    13    38 1
    36    18    14 1
    37    15    14 1
    38    26    15 2
    39    15    16 1
    40    16    17 1
    41    16    39 1
    42    19    18 ar
    43    19    40 1
    44    22    20 1
    45    21    41 1
    46    23    42 1
    47    23    43 1
    48    23    44 1
    49    24    45 1
    50    25    46 1
@<TRIPOS>SUBSTRUCTURE
     1 TUH         1 TEMP              0 ****  ****    0 ROOT
