@<TRIPOS>MOLECULE
TUH
   47    50     1     0     0
SMALL
bcc


@<TRIPOS>ATOM
      1 C4           0.0000     0.0000     0.0000 ca         1 TUH      -0.170900
      2 C5           1.4010     0.0000     0.0000 ca         1 TUH       0.191100
      3 C6           2.0890     0.0000     1.2010 ca         1 TUH      -0.259000
      4 C7          -0.7410     0.0000    -1.2780 cc         1 TUH       0.316500
      5 C13          1.3130    -2.1080    -3.1740 ca         1 TUH      -0.042000
      6 C15          2.1680    -3.1870    -3.1710 ca         1 TUH      -0.100000
      7 C17          0.8960    -4.1690    -1.3660 ca         1 TUH      -0.104800
      8 C20          2.0180    -6.0980    -1.0220 cc         1 TUH      -0.251100
      9 C21          3.8260    -5.8690    -2.7540 c3         1 TUH      -0.005400
     10 C24         -1.5510    -1.2970     3.8350 c3         1 TUH       0.004400
     11 C1           1.3920    -0.0000     2.4000 ca         1 TUH       0.190100
     12 C2           0.0030    -0.0010     2.4020 ca         1 TUH      -0.143300
     13 C3          -0.6920    -0.0050     1.2110 ca         1 TUH      -0.006000
     14 N8          -0.6100    -0.9340    -2.2880 n          1 TUH       0.165500
     15 C9          -1.4500    -0.5960    -3.2880 c          1 TUH       0.534500
     16 N10         -2.0960     0.5270    -2.9170 ns         1 TUH       0.081100
     17 N11         -1.6340     0.8790    -1.6410 nd         1 TUH      -0.624300
     18 C12          0.2490    -2.0440    -2.2760 ca         1 TUH      -0.126400
     19 C14          0.0370    -3.0680    -1.3720 ca         1 TUH      -0.021000
     20 C16          1.9740    -4.2270    -2.2670 ca         1 TUH      -0.194200
     21 C18          0.9710    -5.3940    -0.5650 cd         1 TUH      -0.157200
     22 N19          2.6370    -5.4120    -2.0310 na         1 TUH       0.389600
     23 C23         -1.6990     1.1960     3.7520 c3         1 TUH       0.004400
     24 O25          2.0700    -0.0020     3.5770 oh         1 TUH      -0.480100
     25 O26          2.0820     0.0000    -1.1750 oh         1 TUH      -0.488100
     26 O27         -1.5960    -1.1970    -4.3370 o          1 TUH      -0.707500
     27 H6           3.1720     0.0000     1.2040 ha         1 TUH       0.122000
     28 H13          1.4670    -1.3030    -3.8820 ha         1 TUH       0.113000
     29 H15          2.9910    -3.2270    -3.8740 ha         1 TUH       0.102000
     30 H20          2.3270    -7.0670    -0.6480 h4         1 TUH       0.140000
     31 H21          3.5920    -5.9700    -3.8070 h1         1 TUH       0.017367
     32 H21A         4.1420    -6.8280    -2.3610 h1         1 TUH       0.017367
     33 H21B         4.6250    -5.1480    -2.6300 h1         1 TUH       0.017367
     34 H22         -0.0450     0.0700     4.5310 hc         1 TUH       0.043700
     35 H24         -2.3880    -1.2710     3.1490 hc         1 TUH       0.004867
     36 H24A        -0.9060    -2.1310     3.5860 hc         1 TUH       0.004867
     37 H24B        -1.9170    -1.4130     4.8480 hc         1 TUH       0.004867
     38 H3          -1.7760    -0.0050     1.2160 ha         1 TUH       0.124000
     39 HN10        -2.7850     1.0170    -3.4530 hn         1 TUH       0.220500
     40 H14         -0.7900    -3.0180    -0.6740 ha         1 TUH       0.108000
     41 H18          0.2960    -5.6870     0.2300 ha         1 TUH       0.130000
     42 H23         -1.9980     1.3840     4.7760 hc         1 TUH       0.004867
     43 H23A        -2.5780     0.9920     3.1510 hc         1 TUH       0.004867
     44 H23B        -1.1880     2.0670     3.3600 hc         1 TUH       0.004867
     45 HO25         2.8280     0.5540     3.5050 ho         1 TUH       0.404000
     46 HO26         2.6760     0.7320    -1.1940 ho         1 TUH       0.406000
     47 C22         -0.7470    -0.0010     3.7090 c3         1 TUH       0.009600
@<TRIPOS>BOND
     1     1     2 ar  
     2     1     4 1   
     3     1    13 ar  
     4     2     3 ar  
     5     2    25 1   
     6     3    11 ar  
     7     3    27 1   
     8     4    14 1   
     9     4    17 2   
    10     5     6 ar  
    11     5    18 ar  
    12     5    28 1   
    13     6    20 ar  
    14     6    29 1   
    15     7    19 ar  
    16     7    20 ar  
    17     7    21 1   
    18     8    21 2   
    19     8    22 1   
    20     8    30 1   
    21     9    22 1   
    22     9    31 1   
    23     9    32 1   
    24     9    33 1   
    25    10    35 1   
    26    10    36 1   
    27    10    37 1   
    28    10    47 1   
    29    11    12 ar  
    30    11    24 1   
    31    12    13 ar  
    32    12    47 1   
    33    13    38 1   
    34    14    15 1   
    35    14    18 1   
    36    15    16 1   
    37    15    26 2   
    38    16    17 1   
    39    16    39 1   
    40    18    19 ar  
    41    19    40 1   
    42    20    22 1   
    43    21    41 1   
    44    23    42 1   
    45    23    43 1   
    46    23    44 1   
    47    23    47 1   
    48    24    45 1   
    49    25    46 1   
    50    34    47 1   
@<TRIPOS>SUBSTRUCTURE
     1 TUH         1 TEMP              0 ****  ****    0 ROOT
