@<TRIPOS>MOLECULE
molecule
   50    53     1     0     0
SMALL
bcc


@<TRIPOS>ATOM
      1 O21          0.0000     0.0000     0.0000 o          1 TUI      -0.591100
      2 C19          1.2160     0.0000     0.0000 c          1 TUI       0.769100
      3 N20          1.8910     0.0000     1.1670 ns         1 TUI      -0.538400
      4 C22          1.1950     0.0010     2.3730 cc         1 TUI       0.572300
      5 S23          1.9300     0.0100     3.9730 ss         1 TUI      -0.139300
      6 C24          0.3270     0.0060     4.7070 cc         1 TUI      -0.106500
      7 S27         -0.0190     0.0110     6.4350 ss         1 TUI      -0.171200
      8 C28          1.5860     0.0180     7.1600 ca         1 TUI       0.519600
      9 N29          2.6590     0.0250     6.3820 nb         1 TUI      -0.708000
     10 C30          3.8780     0.0310     6.8850 ca         1 TUI       0.442200
     11 C31          4.0810     0.0300     8.2510 ca         1 TUI      -0.265300
     12 C32          2.9830     0.0230     9.1020 ca         1 TUI      -0.077000
     13 C33          1.7170     0.0240     8.5460 ca         1 TUI      -0.235300
     14 C25         -0.5820     0.0000     3.7230 cd         1 TUI       0.426200
     15 N26         -0.0970     0.0030     2.4950 nd         1 TUI      -0.685000
     16 N18          1.8890    -0.0070    -1.1670 ns         1 TUI      -0.600900
     17 C17          1.1560    -0.0140    -2.4360 c3         1 TUI       0.125700
     18 C15          2.1340    -0.0210    -3.5830 cc         1 TUI       0.353800
     19 N16          2.7010     1.0330    -4.1000 nd         1 TUI      -0.676000
     20 N14          2.5700    -1.1210    -4.2350 na         1 TUI      -0.292900
     21 C13          3.4430    -0.7040    -5.2020 cc         1 TUI      -0.277600
     22 C12          3.5150     0.6500    -5.1050 cd         1 TUI       0.408800
     23 C3           4.3430     1.5460    -5.9500 ca         1 TUI      -0.192500
     24 C2           5.1370     1.0110    -6.9630 ca         1 TUI      -0.074500
     25 C1           5.9050     1.8460    -7.7480 ca         1 TUI      -0.210000
     26 C4           4.3230     2.9220    -5.7370 ca         1 TUI      -0.074500
     27 C5           5.0930     3.7520    -6.5250 ca         1 TUI      -0.210000
     28 C6           5.8870     3.2170    -7.5300 ca         1 TUI       0.176100
     29 O7           6.6450     4.0370    -8.3040 os         1 TUI      -0.284900
     30 C8           6.5800     5.4370    -8.0250 c3         1 TUI       0.017400
     31 C9           7.4790     6.1820    -8.9770 c          1 TUI       0.895600
     32 O11          7.5780     7.5180    -8.9000 o          1 TUI      -0.826800
     33 O10          8.1120     5.5760    -9.8100 o          1 TUI      -0.826800
     34 H81          5.5610     5.7820    -8.1460 h1         1 TUI       0.028200
     35 H82          6.9040     5.6170    -7.0070 h1         1 TUI       0.028200
     36 H5           5.0800     4.8220    -6.3590 ha         1 TUI       0.146000
     37 H4           3.7030     3.3410    -4.9530 ha         1 TUI       0.125500
     38 H2           5.1510    -0.0580    -7.1340 ha         1 TUI       0.125500
     39 H1           6.5240     1.4320    -8.5340 ha         1 TUI       0.146000
     40 H13          3.9750    -1.3310    -5.9070 h4         1 TUI       0.178000
     41 H14          2.3010    -2.0660    -4.0470 hn         1 TUI       0.293700
     42 H171         0.5320    -0.8980    -2.4880 h1         1 TUI       0.069200
     43 H172         0.5340     0.8710    -2.4980 h1         1 TUI       0.069200
     44 H18          2.8900     0.0130    -1.1680 hn         1 TUI       0.316500
     45 H20          2.8910    -0.0010     1.1660 hn         1 TUI       0.328500
     46 H25         -1.6470    -0.0010     3.9220 h4         1 TUI       0.043100
     47 H33          0.8440     0.0500     9.1870 ha         1 TUI       0.147000
     48 H32          3.1130    -0.2060    10.1520 ha         1 TUI       0.142000
     49 H31          5.0750     0.1850     8.6520 ha         1 TUI       0.142000
     50 H30          4.7320     0.0370     6.2180 h4         1 TUI       0.027100
@<TRIPOS>BOND
     1     1     2 2
     2     2    16 1
     3     2     3 1
     4     3     4 1
     5     3    45 1
     6     4    15 2
     7     4     5 1
     8     5     6 1
     9     6    14 2
    10     6     7 1
    11     7     8 1
    12     8    13 ar
    13     8     9 ar
    14     9    10 ar
    15    10    11 ar
    16    10    50 1
    17    11    12 ar
    18    11    49 1
    19    12    13 ar
    20    12    48 1
    21    13    47 1
    22    14    15 1
    23    14    46 1
    24    16    17 1
    25    16    44 1
    26    17    18 1
    27    17    42 1
    28    17    43 1
    29    18    20 1
    30    18    19 2
    31    19    22 1
    32    20    21 1
    33    20    41 1
    34    21    22 2
    35    21    40 1
    36    22    23 1
    37    23    26 ar
    38    23    24 ar
    39    24    25 ar
    40    24    38 1
    41    25    28 ar
    42    25    39 1
    43    26    27 ar
    44    26    37 1
    45    27    28 ar
    46    27    36 1
    47    28    29 1
    48    29    30 1
    49    30    31 1
    50    30    34 1
    51    30    35 1
    52    31    32 1
    53    31    33 1
@<TRIPOS>SUBSTRUCTURE
     1 TUI         1 TEMP              0 ****  ****    0 ROOT
