@<TRIPOS>MOLECULE
molecule
   12    12     1     0     0
SMALL
bcc


@<TRIPOS>ATOM
      1 O4           0.0000     0.0000     0.0000 o          1 TUL      -0.597500
      2 C4           1.2180     0.0000     0.0000 c          1 TUL       0.684700
      3 C5           1.9330     0.0000     1.2220 cc         1 TUL      -0.299200
      4 C6           3.2840     0.0010     1.1930 cd         1 TUL       0.007600
      5 N1           3.9350     0.0010    -0.0090 ns         1 TUL      -0.381100
      6 C2           3.2450     0.0010    -1.1640 cs         1 TUL       0.572400
      7 S2           4.0890     0.0010    -2.6530 s          1 TUL      -0.610400
      8 N3           1.8990    -0.0060    -1.1650 ns         1 TUL      -0.491500
      9 H1           1.4050    -0.0000     2.1670 ha         1 TUL       0.184000
     10 H3           3.8480     0.0010     2.1180 h4         1 TUL       0.172000
     11 H4           1.4010    -0.0060    -2.0330 hn         1 TUL       0.381500
     12 H2           4.9350     0.0020    -0.0310 hn         1 TUL       0.376500
@<TRIPOS>BOND
     1     7     6 2
     2     8     6 1
     3     8     2 1
     4     6     5 1
     5     1     2 2
     6     2     3 1
     7     5     4 1
     8     3     4 2
     9     3     9 1
    10     4    10 1
    11     8    11 1
    12     5    12 1
@<TRIPOS>SUBSTRUCTURE
     1 TUL         1 TEMP              0 ****  ****    0 ROOT
