@<TRIPOS>MOLECULE
TUL
   12    12     1     0     0
SMALL
bcc


@<TRIPOS>ATOM
      1 O4           0.0000     0.0000     0.0000 o          1 TUL      -0.631500
      2 C4           1.2180     0.0000     0.0000 c          1 TUL       0.576700
      3 C5           1.9330     0.0000     1.2220 cc         1 TUL      -0.250200
      4 C6           3.2840     0.0010     1.1930 cd         1 TUL      -0.146400
      5 N1           3.9350     0.0010    -0.0090 ns         1 TUL       0.154900
      6 C2           3.2450     0.0010    -1.1640 cs         1 TUL       0.218400
      7 S2           4.0890     0.0010    -2.6530 s          1 TUL      -0.642400
      8 N3           1.8990    -0.0060    -1.1650 ns         1 TUL       0.005500
      9 H1           1.4050    -0.0000     2.1670 ha         1 TUL       0.153000
     10 H3           3.8480     0.0010     2.1180 h4         1 TUL       0.140000
     11 H4           1.4010    -0.0060    -2.0330 hn         1 TUL       0.219500
     12 H2           4.9350     0.0020    -0.0310 hn         1 TUL       0.201500
@<TRIPOS>BOND
     1     1     2 2   
     2     2     3 1   
     3     2     8 1   
     4     3     4 2   
     5     3     9 1   
     6     4     5 1   
     7     4    10 1   
     8     5     6 1   
     9     5    12 1   
    10     6     7 2   
    11     6     8 1   
    12     8    11 1   
@<TRIPOS>SUBSTRUCTURE
     1 TUL         1 TEMP              0 ****  ****    0 ROOT
