@<TRIPOS>MOLECULE
TUN
   26    25     1     0     0
SMALL
bcc


@<TRIPOS>ATOM
      1 C2           0.0000     0.0000     0.0000 c3         1 TUN      -0.014100
      2 C1           1.5310     0.0000     0.0000 c3         1 TUN       0.285400
      3 O2           2.0070     0.0000     1.3480 os         1 TUN      -0.465200
      4 P            3.5720    -0.0000     1.7250 p5         1 TUN       0.746700
      5 O3           4.2610     1.0690     0.9670 o          1 TUN      -0.642500
      6 N            4.2450    -1.4910     1.3280 n3         1 TUN      -0.527700
      7 C3           5.6750    -1.5280     1.6580 c3         1 TUN       0.197800
      8 C4           6.4350    -2.2620     0.5520 c3         1 TUN      -0.010600
      9 C5           3.5230    -2.5860     1.9900 c3         1 TUN       0.197800
     10 C6           3.4920    -3.8070     1.0670 c3         1 TUN      -0.010600
     11 OXT          3.7440     0.2640     3.3030 o          1 TUN      -0.642500
     12 H21C        -0.3610     0.8880     0.5050 hc         1 TUN      -0.011300
     13 H22C        -0.3610    -0.8810     0.5170 hc         1 TUN      -0.011300
     14 H23C        -0.3610    -0.0070    -1.0210 hc         1 TUN      -0.011300
     15 H11C         1.8920     0.8850    -0.5110 h1         1 TUN      -0.025800
     16 H12C         1.8920    -0.8840    -0.5110 h1         1 TUN      -0.025800
     17 H31C         5.8150    -2.0470     2.5990 h1         1 TUN       0.009950
     18 H32C         6.0520    -0.5160     1.7450 h1         1 TUN       0.009950
     19 H51C         2.5090    -2.2720     2.2060 h1         1 TUN       0.009950
     20 H52C         4.0260    -2.8450     2.9140 h1         1 TUN       0.009950
     21 H41C         7.4020    -1.7950     0.4080 hc         1 TUN      -0.011300
     22 H42C         6.5740    -3.2980     0.8360 hc         1 TUN      -0.011300
     23 H43C         5.8680    -2.2120    -0.3700 hc         1 TUN      -0.011300
     24 H61C         3.5610    -3.4820     0.0360 hc         1 TUN      -0.011300
     25 H62C         4.3280    -4.4560     1.2990 hc         1 TUN      -0.011300
     26 H63C         2.5640    -4.3470     1.2140 hc         1 TUN      -0.011300
@<TRIPOS>BOND
     1     1     2 1   
     2     1    12 1   
     3     1    13 1   
     4     1    14 1   
     5     2     3 1   
     6     2    15 1   
     7     2    16 1   
     8     3     4 1   
     9     4     5 1   
    10     4     6 1   
    11     4    11 1   
    12     6     7 1   
    13     6     9 1   
    14     7     8 1   
    15     7    17 1   
    16     7    18 1   
    17     8    21 1   
    18     8    22 1   
    19     8    23 1   
    20     9    10 1   
    21     9    19 1   
    22     9    20 1   
    23    10    24 1   
    24    10    25 1   
    25    10    26 1   
@<TRIPOS>SUBSTRUCTURE
     1 TUN         1 TEMP              0 ****  ****    0 ROOT
