@<TRIPOS>MOLECULE
TUO
   39    41     1     0     0
SMALL
bcc


@<TRIPOS>ATOM
      1 CAE          0.0000     0.0000     0.0000 ca         1 TUO      -0.070500
      2 CAA          1.3790     0.0000     0.0000 ca         1 TUO      -0.088000
      3 CAB          2.0750     0.0000     1.1960 ca         1 TUO      -0.053000
      4 CAC          1.3920    -0.0000     2.3990 ca         1 TUO      -0.088000
      5 CAG          0.0130    -0.0000     2.4140 ca         1 TUO      -0.070500
      6 CAF         -0.6950     0.0010     1.2110 ca         1 TUO      -0.103800
      7 CAN         -2.1740     0.0060     1.2190 cc         1 TUO       0.155600
      8 CAM         -3.0550    -1.0560     1.7170 ca         1 TUO      -0.167800
      9 CAL         -2.8230    -2.3070     2.2960 ca         1 TUO       0.125000
     10 CAK         -3.8790    -3.0890     2.6650 ca         1 TUO      -0.255500
     11 SAJ         -3.5850    -4.6670     3.3940 sy         1 TUO       0.944200
     12 OAS         -4.7540    -5.4410     3.1620 o          1 TUO      -0.487300
     13 OAD         -2.2900    -5.0700     2.9710 o          1 TUO      -0.487300
     14 NAI         -3.4940    -4.4410     5.0320 nz         1 TUO      -0.130500
     15 CAT         -5.1830    -2.6520     2.4720 ca         1 TUO       0.022000
     16 CAU         -5.4350    -1.4230     1.9050 ca         1 TUO      -0.099000
     17 CAV         -4.3730    -0.6070     1.5180 ca         1 TUO      -0.136200
     18 NAW         -4.3150     0.6390     0.9410 na         1 TUO       0.381600
     19 CAO         -3.0000     1.0180     0.7630 cd         1 TUO      -0.386300
     20 CAP         -2.5500     2.2870     0.1790 c          1 TUO       0.671300
     21 OAH         -1.3620     2.5170     0.0660 o          1 TUO      -0.545100
     22 NAQ         -3.4560     3.1980    -0.2300 ns         1 TUO      -0.383300
     23 NAR         -3.0380     4.3790    -0.7720 nz         1 TUO       0.289400
     24 HAE         -0.5430     0.0000    -0.9370 ha         1 TUO       0.098500
     25 HAA          1.9190    -0.0000    -0.9390 ha         1 TUO       0.119500
     26 HAB          3.1580    -0.0000     1.1910 ha         1 TUO       0.121000
     27 HAC          1.9420    -0.0000     3.3330 ha         1 TUO       0.119500
     28 HAG         -0.5200     0.0000     3.3570 ha         1 TUO       0.098500
     29 HAL         -1.8130    -2.6930     2.3650 ha         1 TUO       0.137000
     30 HNAI        -4.3390    -4.0140     5.3580 hn         1 TUO       0.315467
     31 HNAA        -2.7170    -3.8470     5.2440 hn         1 TUO       0.315467
     32 HAT         -6.0110    -3.2840     2.7710 ha         1 TUO       0.135000
     33 HAU         -6.4560    -1.0910     1.7580 ha         1 TUO       0.131000
     34 HNAR        -2.5000     4.1970    -1.5960 hn         1 TUO       0.226800
     35 HNAW        -5.1100     1.1940     0.6920 hn         1 TUO       0.118700
     36 H13         -4.4330     3.0190    -0.1140 hn         1 TUO       0.256500
     37 H14         -3.8340     4.9370    -1.0100 hn         1 TUO       0.226800
     38 HAI3        -3.3630    -5.3240     5.4850 hn         1 TUO       0.315467
     39 HAR3        -2.4680     4.8670    -0.1100 hn         1 TUO       0.226800
@<TRIPOS>BOND
     1     1     2 ar  
     2     1     6 ar  
     3     1    24 1   
     4     2     3 ar  
     5     2    25 1   
     6     3     4 ar  
     7     3    26 1   
     8     4     5 ar  
     9     4    27 1   
    10     5     6 ar  
    11     5    28 1   
    12     6     7 1   
    13     7     8 1   
    14     7    19 2   
    15     8     9 ar  
    16     8    17 ar  
    17     9    10 ar  
    18     9    29 1   
    19    10    11 1   
    20    10    15 ar  
    21    11    12 2   
    22    11    13 2   
    23    11    14 1   
    24    14    30 1   
    25    14    31 1   
    26    14    38 1   
    27    15    16 ar  
    28    15    32 1   
    29    16    17 ar  
    30    16    33 1   
    31    17    18 1   
    32    18    19 1   
    33    18    35 1   
    34    19    20 1   
    35    20    21 2   
    36    20    22 1   
    37    22    23 1   
    38    22    36 1   
    39    23    34 1   
    40    23    37 1   
    41    23    39 1   
@<TRIPOS>SUBSTRUCTURE
     1 TUO         1 TEMP              0 ****  ****    0 ROOT
