@<TRIPOS>MOLECULE
TUR
   45    43     1     0     0
SMALL
bcc


@<TRIPOS>ATOM
      1 C1         -1.3360    1.8130   -0.6340 c1        1 TUR     -0.036000
      2 O1         -0.7650   -4.0780    0.6590 oh        1 TUR     -0.325000
      3 C2          2.6450    0.1480   -0.2230 c2        1 TUR     -0.114000
      4 O2          3.1500   -0.9930   -0.8190 oh        1 TUR     -0.282000
      5 C3          1.9990    0.0130    0.9530 c2        1 TUR     -0.048000
      6 O3          1.8250   -1.1940    1.5980 oh        1 TUR     -0.280000
      7 C4          1.3490    1.1470    1.6950 c3        1 TUR      0.101000
      8 O4          1.5560    1.0260    3.0890 oh        1 TUR     -0.313000
      9 C5         -0.1510    1.2140    1.3690 c3        1 TUR     -0.161000
     10 O5         -0.2350    1.7390   -0.0020 os        1 TUR     -0.081000
     11 C6         -0.9040    2.1460    2.3150 c3        1 TUR     -0.038000
     12 O6         -2.2920    1.8870    2.2800 oh        1 TUR     -0.335000
     13 OAG        -2.2390   -0.8840   -0.2600 oh        1 TUR     -0.344000
     14 OAH        -2.2130   -1.2050    2.3320 oh        1 TUR     -0.347500
     15 CAK        -0.5950   -2.7060    3.2200 c3        1 TUR     -0.034000
     16 OAN        -2.8090   -3.3160    2.3820 oh        1 TUR     -0.347500
     17 CAR        -1.9810   -2.2750   -0.4450 c3        1 TUR      0.059000
     18 CAT        -3.2480   -3.0510   -0.5320 c2        1 TUR     -0.352000
     19 CAV        -1.0820   -2.6970    0.7360 c3        1 TUR     -0.018000
     20 CAW        -1.6850   -2.4950    2.1470 c3        1 TUR      0.185000
     21 H1         -0.4390   -4.2470   -0.2330 ho        1 TUR      0.211000
     22 H2         -2.2860    1.4920   -0.1530 ha        1 TUR      0.049000
     23 HO2         3.8730   -0.7110   -1.3950 ho        1 TUR      0.223000
     24 H3          2.7610    1.1010   -0.7530 h4        1 TUR      0.158000
     25 HO3         2.4410   -1.8330    1.2070 ho        1 TUR      0.236000
     26 H4          1.8410    2.1230    1.4150 h1        1 TUR      0.135000
     27 HO4         1.2750    0.1390    3.3540 ho        1 TUR      0.217000
     28 H5         -0.6140    0.1870    1.3740 h1        1 TUR      0.137000
     29 H6         -0.8030    3.2150    1.9820 h1        1 TUR      0.107500
     30 H6A        -0.5020    2.0370    3.3580 h1        1 TUR      0.107500
     31 HO6        -2.4310    1.0080    2.6590 ho        1 TUR      0.214000
     32 HOAB       -5.2520   -4.4150   -0.9300 ho        1 TUR      0.222000
     33 HOAC       -1.8950   -2.4590    4.6240 ho        1 TUR      0.216000
     34 HOAG       -2.8890   -0.6260   -0.9260 ho        1 TUR      0.220000
     35 HAK         0.0650   -3.5660    2.9260 h1        1 TUR      0.107500
     36 HAKA        0.0110   -1.7680    3.3230 h1        1 TUR      0.107500
     37 HAR        -1.3790   -2.3990   -1.3950 h1        1 TUR      0.075000
     38 HAT        -2.4840   -4.2170    2.5070 ho        1 TUR      0.239000
     39 HAV        -0.1350   -2.0810    0.6850 h1        1 TUR      0.116000
     40 HOAH       -2.9700   -1.1060    1.7350 ho        1 TUR      0.239000
     41 OAC        -1.1720   -3.0770    4.4500 oh        1 TUR     -0.322000
     42 CAJ        -3.6450   -3.6600   -1.6600 c2        1 TUR      0.023000
     43 HAJ        -3.8290   -3.1100    0.4020 ha        1 TUR      0.163000
     44 OAB        -4.7940   -4.3910   -1.7840 oh        1 TUR     -0.255000
     45 HAJA       -3.1100   -3.6500   -2.6250 h4        1 TUR      0.163000
@<TRIPOS>BOND
     1    1   10 1   
     2    1   22 1   
     3    2   19 1   
     4    2   21 1   
     5    3    4 1   
     6    3    5 1   
     7    3   24 1   
     8    4   23 1   
     9    5    6 1   
    10    5    7 1   
    11    6   25 1   
    12    7    8 1   
    13    7    9 1   
    14    7   26 1   
    15    8   27 1   
    16    9   10 1   
    17    9   11 1   
    18    9   28 1   
    19   11   12 1   
    20   11   29 1   
    21   11   30 1   
    22   12   31 1   
    23   13   17 1   
    24   13   34 1   
    25   14   20 1   
    26   14   40 1   
    27   15   20 1   
    28   15   35 1   
    29   15   36 1   
    30   15   41 1   
    31   16   20 1   
    32   16   38 1   
    33   17   18 1   
    34   17   19 1   
    35   17   37 1   
    36   18   42 1   
    37   18   43 1   
    38   19   20 1   
    39   19   39 1   
    40   32   44 1   
    41   33   41 1   
    42   42   44 1   
    43   42   45 1   
@<TRIPOS>SUBSTRUCTURE
     1 TUR         1 TEMP              0 ****  ****    0 ROOT
