@<TRIPOS>MOLECULE
molecule
   45    46     1     0     0
SMALL
bcc


@<TRIPOS>ATOM
      1 C1           0.0000     0.0000     0.0000 c3         1 TUR       0.326900
      2 O1          -0.4760    -1.1940     0.6260 os         1 TUR      -0.425600
      3 C2           1.5310     0.0000     0.0000 c3         1 TUR       0.100100
      4 O2           2.0090    -1.1680    -0.6720 oh         1 TUR      -0.575800
      5 C3           2.0350     0.0000     1.4460 c3         1 TUR       0.118100
      6 O3           3.4610     0.0740     1.4560 oh         1 TUR      -0.582800
      7 C4           1.4540     1.2140     2.1780 c3         1 TUR       0.083100
      8 O4           1.8590     1.1850     3.5480 oh         1 TUR      -0.585800
      9 C5          -0.0740     1.1670     2.0940 c3         1 TUR       0.141100
     10 O5          -0.4750     1.1380     0.7230 os         1 TUR      -0.416600
     11 C6          -0.6600     2.4080     2.7710 c3         1 TUR       0.151400
     12 O6          -2.0860     2.3070     2.7960 oh         1 TUR      -0.591800
     13 OAG         -2.6400    -1.4280    -1.8520 oh         1 TUR      -0.593800
     14 OAH         -3.4800    -1.5670     2.3090 oh         1 TUR      -0.604800
     15 CAK         -1.2950    -2.5620     2.6340 c3         1 TUR       0.138400
     16 OAN         -2.9180    -3.4840     1.0790 os         1 TUR      -0.397600
     17 CAR         -2.1750    -2.2520    -0.7820 c3         1 TUR       0.084100
     18 CAT         -3.2990    -3.1970    -0.2840 c3         1 TUR       0.114100
     19 CAV         -1.8820    -1.4050     0.4800 c3         1 TUR       0.121100
     20 CAW         -2.4210    -2.2590     1.6440 c3         1 TUR       0.346600
     21 H1          -0.3600     0.0470    -1.0210 h2         1 TUR       0.090700
     22 H2           1.8910     0.8870    -0.5070 h1         1 TUR       0.046700
     23 HO2          2.5760    -0.9120    -1.3810 ho         1 TUR       0.405000
     24 H3           1.7120    -0.9080     1.9410 h1         1 TUR       0.121700
     25 HO3          3.7340     0.9210     1.1420 ho         1 TUR       0.389000
     26 H4           1.8120     2.1230     1.7090 h1         1 TUR       0.034700
     27 HO4          2.5100     1.8510     3.6970 ho         1 TUR       0.408000
     28 H5          -0.4330     0.2740     2.5920 h1         1 TUR       0.083700
     29 H6          -0.3700     3.2930     2.2170 h1         1 TUR       0.032200
     30 H6A         -0.2850     2.4780     3.7850 h1         1 TUR       0.032200
     31 HO6         -2.4490     3.0800     3.1960 ho         1 TUR       0.403000
     32 HOAB        -4.5110    -6.0350    -1.2540 ho         1 TUR       0.401000
     33 HOAC        -1.0820    -3.6880     4.2200 ho         1 TUR       0.406000
     34 HOAG        -2.3390    -1.7810    -2.6740 ho         1 TUR       0.405000
     35 HAK         -0.9090    -1.6330     3.0360 h1         1 TUR       0.045700
     36 HAKA        -0.5000    -3.0930     2.1250 h1         1 TUR       0.045700
     37 HAR         -1.3000    -2.8190    -1.0740 h1         1 TUR       0.066700
     38 HAT         -4.2580    -2.6930    -0.3110 h1         1 TUR       0.082700
     39 HAV         -2.4090    -0.4600     0.4310 h1         1 TUR       0.110700
     40 HOAH        -4.0370    -2.1900     2.7450 ho         1 TUR       0.434000
     41 OAC         -1.8010    -3.3680     3.6990 oh         1 TUR      -0.607800
     42 CAJ         -3.3310    -4.4800    -1.1160 c3         1 TUR       0.148400
     43 HAJ         -3.5060    -4.2320    -2.1560 h1         1 TUR       0.027700
     44 OAB         -4.3820    -5.3270    -0.6450 oh         1 TUR      -0.593800
     45 HAJA        -2.3830    -4.9950    -1.0220 h1         1 TUR       0.027700
@<TRIPOS>BOND
     1     2     1 1
     2    10     1 1
     3     1     3 1
     4     1    21 1
     5     2    19 1
     6     3     4 1
     7     3     5 1
     8     3    22 1
     9     4    23 1
    10     7     5 1
    11     5     6 1
    12     5    24 1
    13     6    25 1
    14     9     7 1
    15     7     8 1
    16     7    26 1
    17     8    27 1
    18    11     9 1
    19    10     9 1
    20     9    28 1
    21    11    12 1
    22    11    29 1
    23    11    30 1
    24    12    31 1
    25    42    44 1
    26    44    32 1
    27    41    15 1
    28    41    33 1
    29    17    13 1
    30    13    34 1
    31    20    14 1
    32    14    40 1
    33    42    18 1
    34    42    43 1
    35    42    45 1
    36    15    20 1
    37    15    35 1
    38    15    36 1
    39    18    16 1
    40    16    20 1
    41    18    17 1
    42    17    19 1
    43    17    37 1
    44    18    38 1
    45    20    19 1
    46    19    39 1
@<TRIPOS>SUBSTRUCTURE
     1 TUR         1 TEMP              0 ****  ****    0 ROOT
