@<TRIPOS>MOLECULE
TUT
   52    54     1     0     0
SMALL
bcc


@<TRIPOS>ATOM
      1 C            0.0000     0.0000     0.0000 c3         1 TUT       0.244700
      2 N            5.2230    -2.4030     2.5820 n2         1 TUT      -0.716100
      3 O            1.4290     0.0000     0.0000 os         1 TUT      -0.309900
      4 Cl          12.7010    -1.0960     2.9890 cl         1 TUT      -0.020400
      5 C1           2.0460     0.0000     1.2110 ca         1 TUT       0.151100
      6 N1           7.4120    -1.6730     2.7010 ns         1 TUT      -0.074400
      7 O1           7.0720    -3.8670     2.6820 o          1 TUT      -0.620100
      8 C2           1.2910    -0.0010     2.3760 ca         1 TUT      -0.212000
      9 N2           9.3270    -9.6840     3.3930 n7         1 TUT      -0.577200
     10 O2           8.9050    -5.5690     2.7930 os         1 TUT      -0.246900
     11 C3           1.9190    -0.0010     3.6060 ca         1 TUT      -0.055000
     12 C4           3.3000    -0.0010     3.6780 ca         1 TUT      -0.128000
     13 C5           4.0550    -0.0000     2.5190 ca         1 TUT      -0.024300
     14 C6           5.5600    -0.0000     2.6010 c3         1 TUT       0.011600
     15 C7           6.0610    -1.4210     2.6280 c2         1 TUT       0.244900
     16 C8           7.8610    -2.9430     2.7250 c          1 TUT       0.600700
     17 C9           9.3090    -3.2130     2.8040 ca         1 TUT      -0.209600
     18 C10         10.2180    -2.1530     2.8540 ca         1 TUT      -0.039000
     19 C11         11.5710    -2.4130     2.9280 ca         1 TUT      -0.091600
     20 C12         12.0320    -3.7190     2.9520 ca         1 TUT      -0.021000
     21 C13         11.1430    -4.7740     2.9030 ca         1 TUT      -0.226000
     22 C14          9.7800    -4.5330     2.8350 ca         1 TUT       0.227100
     23 C15          9.4600    -6.8830     2.7030 c3         1 TUT       0.155100
     24 C16          8.4360    -7.8270     2.0660 c3         1 TUT      -0.045900
     25 C17          9.0130    -9.2440     2.0280 c3         1 TUT       0.152800
     26 C18         10.3420    -8.8190     4.0090 c3         1 TUT       0.152800
     27 C19          9.8060    -7.3900     4.1050 c3         1 TUT      -0.045900
     28 C20          3.4310    -0.0070     1.2860 ca         1 TUT      -0.124000
     29 H           -0.3610    -0.8850     0.5100 h1         1 TUT      -0.003633
     30 HA          -0.3610     0.0000    -1.0210 h1         1 TUT      -0.003633
     31 HB          -0.3610     0.8840     0.5110 h1         1 TUT      -0.003633
     32 HN           5.5560    -3.3470     2.6000 hn         1 TUT       0.411400
     33 HN1          8.0610    -0.9120     2.7420 hn         1 TUT       0.173500
     34 H2           0.2090    -0.0010     2.3200 ha         1 TUT       0.117000
     35 H3           1.3300    -0.0020     4.5150 ha         1 TUT       0.098000
     36 H4           3.7910    -0.0010     4.6430 ha         1 TUT       0.104000
     37 H6           5.8730     0.5100     3.5030 hc         1 TUT       0.019700
     38 H6A          5.9690     0.5100     1.7370 hc         1 TUT       0.019700
     39 H10          9.8670    -1.1330     2.7560 ha         1 TUT       0.112000
     40 H12         13.0960    -3.9140     3.0050 ha         1 TUT       0.113000
     41 H13         11.5110    -5.7930     2.9230 ha         1 TUT       0.137000
     42 H15         10.3570    -6.8610     2.0970 h1         1 TUT       0.017700
     43 H16          7.5260    -7.8240     2.6540 hc         1 TUT       0.035450
     44 H16A         8.2220    -7.4980     1.0560 hc         1 TUT       0.035450
     45 H17          9.9180    -9.2490     1.4320 h1         1 TUT       0.005450
     46 H17A         8.2840    -9.9170     1.5920 h1         1 TUT       0.005450
     47 H18         10.5710    -9.1850     5.0020 h1         1 TUT       0.005450
     48 H18A        11.2380    -8.8270     3.4000 h1         1 TUT       0.005450
     49 H19         10.5620    -6.7500     4.5430 hc         1 TUT       0.035450
     50 H19A         8.9150    -7.3800     4.7220 hc         1 TUT       0.035450
     51 H20          4.0230    -0.0060     0.3790 ha         1 TUT       0.115000
     52 HN2          9.6600   -10.6270     3.3720 hn         1 TUT       0.253800
@<TRIPOS>BOND
     1     1     3 1   
     2     1    29 1   
     3     1    30 1   
     4     1    31 1   
     5     2    15 2   
     6     2    32 1   
     7     3     5 1   
     8     4    19 1   
     9     5     8 ar  
    10     5    28 ar  
    11     6    15 1   
    12     6    16 1   
    13     6    33 1   
    14     7    16 2   
    15     8    11 ar  
    16     8    34 1   
    17     9    25 1   
    18     9    26 1   
    19     9    52 1   
    20    10    22 1   
    21    10    23 1   
    22    11    12 ar  
    23    11    35 1   
    24    12    13 ar  
    25    12    36 1   
    26    13    14 1   
    27    13    28 ar  
    28    14    15 1   
    29    14    37 1   
    30    14    38 1   
    31    16    17 1   
    32    17    18 ar  
    33    17    22 ar  
    34    18    19 ar  
    35    18    39 1   
    36    19    20 ar  
    37    20    21 ar  
    38    20    40 1   
    39    21    22 ar  
    40    21    41 1   
    41    23    24 1   
    42    23    27 1   
    43    23    42 1   
    44    24    25 1   
    45    24    43 1   
    46    24    44 1   
    47    25    45 1   
    48    25    46 1   
    49    26    27 1   
    50    26    47 1   
    51    26    48 1   
    52    27    49 1   
    53    27    50 1   
    54    28    51 1   
@<TRIPOS>SUBSTRUCTURE
     1 TUT         1 TEMP              0 ****  ****    0 ROOT
