@<TRIPOS>MOLECULE
molecule
   71    71     1     0     0
SMALL
bcc


@<TRIPOS>ATOM
      1 C3G          0.0000     0.0000     0.0000 c3         1 TUX       0.149100
      2 C4G          1.5330     0.0000     0.0000 c3         1 TUX       0.101100
      3 C5G          2.0320     0.0000     1.4460 c3         1 TUX       0.121100
      4 C2G         -0.4920     1.1640     0.8650 c3         1 TUX      -0.088700
      5 C1G          0.1590     1.0720     2.2460 c3         1 TUX       0.117400
      6 O5G          1.5760     1.1720     2.1200 os         1 TUX      -0.371600
      7 O3G         -0.4880     0.1600    -1.3580 os         1 TUX      -0.443900
      8 O1A         -0.5220    -2.0270    -1.6750 o          1 TUX      -0.528000
      9 C1A         -0.7190    -0.9210    -2.1190 c          1 TUX       0.626100
     10 C2A         -1.2260    -0.7550    -3.5290 c3         1 TUX      -0.124400
     11 C3A         -1.4040    -2.1300    -4.1720 c3         1 TUX      -0.072400
     12 C4A         -1.9180    -1.9630    -5.6020 c3         1 TUX      -0.084400
     13 C5A         -2.0980    -3.3380    -6.2460 c3         1 TUX      -0.079400
     14 C6A         -2.6120    -3.1710    -7.6760 c3         1 TUX      -0.082400
     15 C7A         -2.7910    -4.5460    -8.3210 c3         1 TUX      -0.081400
     16 C8A         -3.3050    -4.3780    -9.7510 c3         1 TUX      -0.081400
     17 C9A         -3.4850    -5.7540   -10.3950 c3         1 TUX      -0.081400
     18 CAA         -3.9980    -5.5860   -11.8250 c3         1 TUX      -0.081400
     19 CBA         -4.1780    -6.9610   -12.4700 c3         1 TUX      -0.082400
     20 CCA         -4.6910    -6.7940   -13.9000 c3         1 TUX      -0.081400
     21 CDA         -4.8710    -8.1690   -14.5440 c3         1 TUX      -0.084400
     22 CEA         -5.3850    -8.0020   -15.9740 c3         1 TUX      -0.092100
     23 CZH         -2.0140     1.0880     1.0090 c3         1 TUX      -0.144400
     24 CYH         -2.4970     2.2340     1.8590 c          1 TUX       0.670100
     25 OYH         -1.7040     3.0340     2.3060 o          1 TUX      -0.574100
     26 NXH         -3.8120     2.3700     2.1230 ns         1 TUX      -0.472400
     27 OXH         -4.2660     3.4470     2.9210 oh         1 TUX      -0.361100
     28 O4G          2.0180    -1.1630    -0.6740 oh         1 TUX      -0.587800
     29 C6G          3.5620    -0.0300     1.4560 c3         1 TUX       0.149400
     30 O6G          4.0300    -0.0410     2.8050 oh         1 TUX      -0.596800
     31 H3G         -0.3610    -0.9340     0.4130 h1         1 TUX       0.079700
     32 H4G          1.8920     0.8900    -0.5030 h1         1 TUX       0.055700
     33 H5G          1.6490    -0.8760     1.9560 h1         1 TUX       0.063700
     34 H2G         -0.2150     2.1020     0.3980 hc         1 TUX       0.093700
     35 H1G1        -0.0950     0.1220     2.7000 h1         1 TUX       0.073200
     36 H1G2        -0.2030     1.8820     2.8680 h1         1 TUX       0.073200
     37 H2A2        -2.1770    -0.2380    -3.5120 hc         1 TUX       0.069200
     38 H2A3        -0.5110    -0.1780    -4.1040 hc         1 TUX       0.069200
     39 H3A3        -2.1190    -2.7070    -3.5970 hc         1 TUX       0.059200
     40 H3A2        -0.4530    -2.6470    -4.1880 hc         1 TUX       0.059200
     41 H4A2        -1.2040    -1.3860    -6.1770 hc         1 TUX       0.040200
     42 H4A3        -2.8700    -1.4450    -5.5860 hc         1 TUX       0.040200
     43 H5A3        -2.8130    -3.9140    -5.6710 hc         1 TUX       0.044200
     44 H5A2        -1.1470    -3.8560    -6.2620 hc         1 TUX       0.044200
     45 H6A2        -1.8980    -2.5930    -8.2510 hc         1 TUX       0.040700
     46 H6A3        -3.5640    -2.6530    -7.6600 hc         1 TUX       0.040700
     47 H7A3        -1.8400    -5.0640    -8.3370 hc         1 TUX       0.042200
     48 H7A2        -3.5060    -5.1240    -7.7470 hc         1 TUX       0.042200
     49 H8A2        -4.2560    -3.8600    -9.7350 hc         1 TUX       0.040700
     50 H8A3        -2.5900    -3.8020   -10.3260 hc         1 TUX       0.040700
     51 H9A3        -4.2000    -6.3300    -9.8200 hc         1 TUX       0.041200
     52 H9A2        -2.5340    -6.2720   -10.4110 hc         1 TUX       0.041200
     53 HAA2        -3.2840    -5.0080   -12.3990 hc         1 TUX       0.040700
     54 HAA3        -4.9500    -5.0680   -11.8090 hc         1 TUX       0.040700
     55 HBA3        -3.2260    -7.4790   -12.4860 hc         1 TUX       0.040700
     56 HBA2        -4.8920    -7.5390   -11.8950 hc         1 TUX       0.040700
     57 HCA2        -5.6430    -6.2760   -13.8840 hc         1 TUX       0.040700
     58 HCA3        -3.9770    -6.2180   -14.4750 hc         1 TUX       0.040700
     59 HDA3        -3.9200    -8.6870   -14.5600 hc         1 TUX       0.039700
     60 HDA2        -5.5860    -8.7460   -13.9690 hc         1 TUX       0.039700
     61 HEA1        -4.6730    -7.4220   -16.5480 hc         1 TUX       0.032700
     62 HEA2        -6.3390    -7.4880   -15.9580 hc         1 TUX       0.032700
     63 HEA3        -5.5080    -8.9770   -16.4300 hc         1 TUX       0.032700
     64 HZH2        -2.2850     0.1500     1.4790 hc         1 TUX       0.069200
     65 HZH3        -2.4720     1.1460     0.0290 hc         1 TUX       0.069200
     66 HNH1        -4.4680     1.7120     1.7500 hn         1 TUX       0.319500
     67 HOH1        -5.2020     3.3930     3.0200 ho         1 TUX       0.399000
     68 HOG4         2.6000    -0.9040    -1.3700 ho         1 TUX       0.404000
     69 H6G2         3.9430     0.8480     0.9490 h1         1 TUX       0.030700
     70 H6G3         3.9090    -0.9200     0.9460 h1         1 TUX       0.030700
     71 HOG6         4.9710    -0.1040     2.8110 ho         1 TUX       0.402000
@<TRIPOS>BOND
     1     1     2 1
     2     1     4 1
     3     1     7 1
     4     1    31 1
     5     2     3 1
     6     2    28 1
     7     2    32 1
     8     3     6 1
     9     3    29 1
    10     3    33 1
    11     4     5 1
    12     4    23 1
    13     4    34 1
    14     5     6 1
    15     5    35 1
    16     5    36 1
    17     7     9 1
    18     8     9 2
    19     9    10 1
    20    10    11 1
    21    10    37 1
    22    10    38 1
    23    11    12 1
    24    11    39 1
    25    11    40 1
    26    12    13 1
    27    12    41 1
    28    12    42 1
    29    13    14 1
    30    13    43 1
    31    13    44 1
    32    14    15 1
    33    14    45 1
    34    14    46 1
    35    15    16 1
    36    15    47 1
    37    15    48 1
    38    16    17 1
    39    16    49 1
    40    16    50 1
    41    17    18 1
    42    17    51 1
    43    17    52 1
    44    18    19 1
    45    18    53 1
    46    18    54 1
    47    19    20 1
    48    19    55 1
    49    19    56 1
    50    20    21 1
    51    20    57 1
    52    20    58 1
    53    21    22 1
    54    21    59 1
    55    21    60 1
    56    22    61 1
    57    22    62 1
    58    22    63 1
    59    23    24 1
    60    23    64 1
    61    23    65 1
    62    24    25 2
    63    24    26 1
    64    26    27 1
    65    26    66 1
    66    27    67 1
    67    28    68 1
    68    29    30 1
    69    29    69 1
    70    29    70 1
    71    30    71 1
@<TRIPOS>SUBSTRUCTURE
     1 TUX         1 TEMP              0 ****  ****    0 ROOT
