@<TRIPOS>MOLECULE
molecule
   37    41     1     0     0
SMALL
bcc


@<TRIPOS>ATOM
      1 N5           0.0000     0.0000     0.0000 nv         1 TV2      -0.990800
      2 C17          1.3930     0.0000     0.0000 cc         1 TV2       0.796200
      3 N3           2.1530     0.0000     1.0740 nd         1 TV2      -0.607100
      4 N1           3.4850    -0.0000     0.6360 na         1 TV2      -0.013800
      5 C7           3.4320     0.0000    -0.7320 cd         1 TV2       0.052700
      6 N4           2.1650    -0.0060    -1.0880 nc         1 TV2      -0.463300
      7 C8           4.6850    -0.0000     1.2760 cc         1 TV2       0.589800
      8 N2           5.8220     0.0010     0.6490 nd         1 TV2      -0.698000
      9 C4           5.8980     0.0010    -0.7040 ca         1 TV2       0.427600
     10 C3           7.1270     0.0010    -1.3700 ca         1 TV2      -0.168300
     11 C2           7.1570     0.0010    -2.7360 ca         1 TV2      -0.104000
     12 C1           5.9820     0.0010    -3.4770 ca         1 TV2      -0.138000
     13 C6           4.7640    -0.0000    -2.8540 ca         1 TV2      -0.074000
     14 C5           4.7040     0.0000    -1.4610 ca         1 TV2      -0.142300
     15 C9           4.6960     0.0010     2.7830 c3         1 TV2      -0.071400
     16 C10          6.1190     0.0010     3.2760 ca         1 TV2      -0.069300
     17 C11          6.7710     1.1990     3.5010 ca         1 TV2      -0.107000
     18 C12          8.0780     1.2030     3.9530 ca         1 TV2      -0.112000
     19 C13          8.7370     0.0070     4.1810 ca         1 TV2       0.050100
     20 C14          8.0810    -1.2000     3.9540 ca         1 TV2       0.050100
     21 C15          6.7700    -1.1970     3.5070 ca         1 TV2      -0.096000
     22 O2          10.0030    -0.2600     4.6180 os         1 TV2      -0.328900
     23 C16          9.9800    -1.6350     5.0470 c3         1 TV2       0.332200
     24 O1           8.9340    -2.2230     4.2490 os         1 TV2      -0.327900
     25 H5A         -0.5000     0.7880     0.3600 hn         1 TV2       0.449300
     26 H5B         -0.5000    -0.7890    -0.3590 hn         1 TV2       0.449300
     27 H91C         4.1880     0.8850     3.1470 hc         1 TV2       0.082200
     28 H92C         4.1870    -0.8840     3.1480 hc         1 TV2       0.082200
     29 HA           8.0510     0.0020    -0.8050 ha         1 TV2       0.155000
     30 H2           8.1110     0.0020    -3.2480 ha         1 TV2       0.137000
     31 H1           6.0300     0.0010    -4.5590 ha         1 TV2       0.137000
     32 H6           3.8530    -0.0010    -3.4390 ha         1 TV2       0.155000
     33 H11          6.2530     2.1360     3.3380 ha         1 TV2       0.139000
     34 H15          6.2490    -2.1350     3.3540 ha         1 TV2       0.144000
     35 H12          8.5870     2.1440     4.1290 ha         1 TV2       0.144000
     36 H161         9.7160    -1.6890     6.0960 h2         1 TV2       0.070700
     37 H162        10.9270    -2.1080     4.8180 h2         1 TV2       0.070700
@<TRIPOS>BOND
     1     1     2 1
     2     2     3 2
     3     2     6 1
     4     3     4 1
     5     4     5 1
     6     4     7 1
     7     5     6 2
     8     5    14 1
     9     7     8 2
    10     7    15 1
    11     8     9 1
    12     9    10 ar
    13     9    14 ar
    14    10    11 ar
    15    11    12 ar
    16    12    13 ar
    17    13    14 ar
    18    15    16 1
    19    16    17 ar
    20    16    21 ar
    21    17    18 ar
    22    18    19 ar
    23    19    20 ar
    24    19    22 1
    25    20    21 ar
    26    20    24 1
    27    22    23 1
    28    23    24 1
    29     1    25 1
    30     1    26 1
    31    15    27 1
    32    15    28 1
    33    10    29 1
    34    11    30 1
    35    12    31 1
    36    13    32 1
    37    17    33 1
    38    21    34 1
    39    18    35 1
    40    23    36 1
    41    23    37 1
@<TRIPOS>SUBSTRUCTURE
     1 TV2         1 TEMP              0 ****  ****    0 ROOT
