@<TRIPOS>MOLECULE
TV4
   41    42     1     0     0
SMALL
bcc


@<TRIPOS>ATOM
      1 N1           0.0000     0.0000     0.0000 nb         1 TV4      -0.563000
      2 C2           1.3240     0.0000     0.0000 ca         1 TV4       0.500200
      3 C3           2.0350     0.0000     1.1960 ca         1 TV4      -0.073200
      4 C4           1.3410    -0.0020     2.3930 ca         1 TV4      -0.064000
      5 C5          -0.0530    -0.0020     2.3530 ca         1 TV4      -0.211700
      6 C6          -0.6930    -0.0010     1.1230 ca         1 TV4       0.380200
      7 N7           2.0120     0.0020    -1.2110 nv         1 TV4      -0.654500
      8 Br8          3.9260    -0.0010     1.1850 br         1 TV4      -0.098100
      9 N9          -0.7970    -0.0040     3.5390 ns         1 TV4      -0.002100
     10 C10         -0.2690     0.5130     4.6670 c          1 TV4       0.591700
     11 O11          0.8090     1.0760     4.6310 o          1 TV4      -0.607100
     12 C12         -0.9970     0.3970     5.9440 ca         1 TV4      -0.193600
     13 C13         -0.7840    -0.7070     6.7770 ca         1 TV4       0.139900
     14 C14         -1.4690    -0.8120     7.9730 ca         1 TV4      -0.111000
     15 C15         -2.3660     0.1700     8.3500 ca         1 TV4      -0.120000
     16 C16         -2.5860     1.2700     7.5310 ca         1 TV4       0.029600
     17 C17         -1.9000     1.3910     6.3310 ca         1 TV4       0.114900
     18 F18         -2.1090     2.4630     5.5360 f          1 TV4      -0.115900
     19 F19          0.0920    -1.6700     6.4120 f          1 TV4      -0.117900
     20 N20         -3.4970     2.2600     7.9200 nu         1 TV4      -0.397500
     21 S21         -3.6480     2.6640     9.5200 s6         1 TV4       0.953900
     22 O22         -4.5720     3.7440     9.5230 o          1 TV4      -0.576300
     23 O23         -3.9550     1.4350    10.1640 o          1 TV4      -0.576300
     24 C24         -1.9960     3.2390     9.9990 c3         1 TV4      -0.012600
     25 C25         -2.0050     3.6470    11.4740 c3         1 TV4       0.005600
     26 C26         -0.6120     4.1320    11.8780 c3         1 TV4       0.008900
     27 H4           1.8680    -0.0020     3.3390 ha         1 TV4       0.166000
     28 H6          -1.7760    -0.0010     1.0840 h4         1 TV4      -0.019900
     29 HN7          2.2460    -0.8640    -1.6540 hn         1 TV4       0.281300
     30 HN7A         2.2450     0.8690    -1.6530 hn         1 TV4       0.281300
     31 HN9         -1.7530    -0.2980     3.5270 hn         1 TV4       0.171500
     32 H14         -1.3030    -1.6670     8.6170 ha         1 TV4       0.129000
     33 H15         -2.9020     0.0800     9.2870 ha         1 TV4       0.185000
     34 HN20        -4.0230     2.7550     7.2280 hn         1 TV4       0.358800
     35 H24         -1.2780     2.4410     9.8490 h1         1 TV4       0.072700
     36 H24A        -1.7200     4.0910     9.3900 h1         1 TV4       0.072700
     37 H25         -2.7230     4.4450    11.6230 hc         1 TV4       0.026700
     38 H25A        -2.2810     2.7940    12.0830 hc         1 TV4       0.026700
     39 H26          0.1050     3.3340    11.7290 hc         1 TV4       0.005700
     40 H26A        -0.6190     4.4210    12.9220 hc         1 TV4       0.005700
     41 H26B        -0.3360     4.9850    11.2690 hc         1 TV4       0.005700
@<TRIPOS>BOND
     1     1     2 ar  
     2     1     6 ar  
     3     2     3 ar  
     4     2     7 1   
     5     3     4 ar  
     6     3     8 1   
     7     4     5 ar  
     8     4    27 1   
     9     5     6 ar  
    10     5     9 1   
    11     6    28 1   
    12     7    29 1   
    13     7    30 1   
    14     9    10 1   
    15     9    31 1   
    16    10    11 2   
    17    10    12 1   
    18    12    13 ar  
    19    12    17 ar  
    20    13    14 ar  
    21    13    19 1   
    22    14    15 ar  
    23    14    32 1   
    24    15    16 ar  
    25    15    33 1   
    26    16    17 ar  
    27    16    20 1   
    28    17    18 1   
    29    20    21 1   
    30    20    34 1   
    31    21    22 2   
    32    21    23 2   
    33    21    24 1   
    34    24    25 1   
    35    24    35 1   
    36    24    36 1   
    37    25    26 1   
    38    25    37 1   
    39    25    38 1   
    40    26    39 1   
    41    26    40 1   
    42    26    41 1   
@<TRIPOS>SUBSTRUCTURE
     1 TV4         1 TEMP              0 ****  ****    0 ROOT
