@<TRIPOS>MOLECULE
molecule
   30    32     1     0     0
SMALL
bcc


@<TRIPOS>ATOM
      1 C            0.0000     0.0000     0.0000 c          1 TVC       0.882200
      2 O            1.3480     0.0000     0.0000 o          1 TVC      -0.835800
      3 C1          -0.7380     0.0000     1.2800 ca         1 TVC      -0.105600
      4 C10         -8.4670     0.0020     4.8890 ca         1 TVC      -0.139000
      5 C11         -9.1570     0.0020     3.6780 ca         1 TVC      -0.146000
      6 C12         -8.4900     0.0010     2.4920 ca         1 TVC      -0.112000
      7 C13         -7.0840     0.0010     2.4810 ca         1 TVC      -0.047000
      8 C14         -6.3660     0.0000     1.2720 ca         1 TVC      -0.128000
      9 C15         -5.0080     0.0010     1.2890 ca         1 TVC      -0.109000
     10 C16         -2.1320     0.0000     1.2830 ca         1 TVC      -0.086000
     11 C2          -0.0410    -0.0060     2.4910 ca         1 TVC      -0.081000
     12 C3          -0.7310    -0.0070     3.6860 ca         1 TVC      -0.167000
     13 C4          -2.1120    -0.0020     3.6930 ca         1 TVC      -0.135000
     14 C5          -2.8200    -0.0010     2.4920 cp         1 TVC      -0.092000
     15 C6          -4.3040     0.0000     2.5040 cp         1 TVC       0.010000
     16 C7          -4.9790     0.0000     3.7090 ca         1 TVC      -0.140000
     17 C8          -6.3830     0.0010     3.7130 ca         1 TVC      -0.028000
     18 C9          -7.1060     0.0010     4.9200 ca         1 TVC      -0.117000
     19 O1          -0.6080     0.0060    -1.0520 o          1 TVC      -0.835800
     20 H7          -9.0400     0.0010     1.5590 ha         1 TVC       0.124000
     21 H8          -6.8960     0.0010     0.3280 ha         1 TVC       0.126000
     22 H9          -4.4620     0.0030     0.3540 ha         1 TVC       0.152000
     23 H10         -2.6780     0.0010     0.3470 ha         1 TVC       0.148000
     24 H            1.0420    -0.0100     2.4920 ha         1 TVC       0.155000
     25 H1          -0.1870    -0.0100     4.6230 ha         1 TVC       0.107000
     26 H2          -2.6470    -0.0030     4.6350 ha         1 TVC       0.106000
     27 H3          -4.4310    -0.0010     4.6430 ha         1 TVC       0.137000
     28 H4          -6.5830     0.0010     5.8680 ha         1 TVC       0.126000
     29 H5          -9.0220     0.0030     5.8200 ha         1 TVC       0.116000
     30 H6         -10.2400     0.0030     3.6810 ha         1 TVC       0.115000
@<TRIPOS>BOND
     1     6     5 ar
     2     6     7 ar
     3    19     1 1
     4     8     9 ar
     5     8     7 ar
     6     5     4 ar
     7     9    15 ar
     8     7    17 ar
     9     1     3 1
    10     1     2 1
    11    11    12 ar
    12    11     3 ar
    13    12    13 ar
    14     3    10 ar
    15    13    14 ar
    16    10    14 ar
    17     4    18 ar
    18    15    14 1
    19    15    16 ar
    20    17    18 ar
    21    17    16 ar
    22     4    29 1
    23     5    30 1
    24     6    20 1
    25     8    21 1
    26     9    22 1
    27    10    23 1
    28    11    24 1
    29    12    25 1
    30    13    26 1
    31    16    27 1
    32    18    28 1
@<TRIPOS>SUBSTRUCTURE
     1 TVC         1 TEMP              0 ****  ****    0 ROOT
