@<TRIPOS>MOLECULE
molecule
   68    68     1     0     0
SMALL
bcc


@<TRIPOS>ATOM
      1 OBH          0.0000     0.0000     0.0000 o          1 TVN      -0.541167
      2 PBF          1.6100     0.0000     0.0000 p5         1 TVN       1.139900
      3 OBI          2.1040     0.0000     1.3950 o          1 TVN      -0.541167
      4 OBG          2.1480    -1.3150    -0.7600 o          1 TVN      -0.541167
      5 OBE          2.1460     1.3150    -0.7590 os         1 TVN      -0.453500
      6 CBD          1.8360     2.4800    -0.1330 ca         1 TVN       0.090100
      7 CBC          2.7030     3.0160     0.8090 ca         1 TVN      -0.136000
      8 CBB          0.3400     4.3240     0.2010 ca         1 TVN      -0.112000
      9 CBJ          0.6530     3.1390    -0.4380 ca         1 TVN      -0.136000
     10 CBK          2.3850     4.2000     1.4440 ca         1 TVN      -0.112000
     11 CBA          1.2030     4.8520     1.1430 ca         1 TVN      -0.190300
     12 CAZ          0.8590     6.1440     1.8370 c3         1 TVN      -0.033100
     13 CAF          2.8110     7.3380     0.8360 c3         1 TVN      -0.159400
     14 CAC          3.4290     7.4290     2.2070 c          1 TVN       0.651100
     15 OAD          2.7210     7.5500     3.1840 o          1 TVN      -0.598100
     16 NAB          4.7690     7.3750     2.3470 ns         1 TVN      -0.586900
     17 CAA          5.3700     7.4640     3.6800 c3         1 TVN       0.100300
     18 CAG          1.2870     7.3240     0.9630 c3         1 TVN      -0.116700
     19 CAH          0.8240     8.6120     1.5940 c          1 TVN       0.669100
     20 OAI          0.2130     8.5870     2.6420 o          1 TVN      -0.588100
     21 NAJ          1.0910     9.7890     0.9960 ns         1 TVN      -0.582900
     22 CAK          0.6400    11.0420     1.6100 c3         1 TVN       0.061700
     23 CAW          1.6710    11.5010     2.6440 c3         1 TVN      -0.083700
     24 CAX          3.0470    11.6010     1.9830 c3         1 TVN      -0.094600
     25 CAY          1.7280    10.4900     3.7910 c3         1 TVN      -0.094600
     26 CAL          0.4910    12.0980     0.5460 c          1 TVN       0.676100
     27 OAM          1.0650    11.9740    -0.5150 o          1 TVN      -0.612100
     28 NAN         -0.2790    13.1800     0.7740 ns         1 TVN      -0.548900
     29 CAO         -0.5080    14.1550    -0.2950 c3         1 TVN       0.111700
     30 CAT          0.6260    15.1470    -0.3220 c          1 TVN       0.279100
     31 OAV          1.5360    15.0490     0.4750 o          1 TVN      -0.490100
     32 NAU          0.6290    16.1430    -1.2290 nz         1 TVN      -0.633400
     33 CAP         -1.8250    14.8910    -0.0410 c3         1 TVN      -0.129400
     34 CAQ         -2.9720    13.9170    -0.1360 c          1 TVN       0.207100
     35 OAS         -2.7570    12.7500    -0.3840 o          1 TVN      -0.536100
     36 NAR         -4.2360    14.3450     0.0530 nz         1 TVN      -0.607400
     37 HBC          3.3820     2.1850     0.6560 ha         1 TVN       0.180000
     38 HBB         -0.3360     5.1560     0.3520 ha         1 TVN       0.146000
     39 HBJ          0.4060     2.3640    -1.1530 ha         1 TVN       0.180000
     40 HBK          2.6330     4.9770     2.1570 ha         1 TVN       0.146000
     41 HAZ         -0.2100     6.1890     2.0060 hc         1 TVN       0.082700
     42 HAZA         1.3770     6.1920     2.7880 hc         1 TVN       0.082700
     43 HAF          3.1160     8.1930     0.2450 hc         1 TVN       0.071200
     44 HAFA         3.1420     6.4270     0.3500 hc         1 TVN       0.071200
     45 HAA          5.3720     8.4970     4.0070 h1         1 TVN       0.043033
     46 HAAA         4.7950     6.8660     4.3760 h1         1 TVN       0.043033
     47 HAG          0.8440     7.2240    -0.0200 hc         1 TVN       0.071700
     48 HNAJ         1.5470     9.8050     0.1050 hn         1 TVN       0.330500
     49 HAK         -0.3140    10.8820     2.0970 h1         1 TVN       0.088700
     50 HAW          1.3850    12.4710     3.0320 hc         1 TVN       0.037700
     51 HAX          3.8150    11.3690     2.7110 hc         1 TVN       0.047533
     52 HAXA         3.1960    12.6070     1.6100 hc         1 TVN       0.047533
     53 HAXB         3.1040    10.8990     1.1610 hc         1 TVN       0.047533
     54 HAY          0.7340    10.1030     3.9810 hc         1 TVN       0.047533
     55 HAYA         2.3880     9.6750     3.5210 hc         1 TVN       0.047533
     56 HAYB         2.1030    10.9770     4.6830 hc         1 TVN       0.047533
     57 HNAN        -0.6900    13.3210     1.6750 hn         1 TVN       0.329500
     58 HAO         -0.5600    13.6410    -1.2470 h1         1 TVN       0.108700
     59 HNAU         0.1960    16.9550    -0.8350 hn         1 TVN       0.435133
     60 HNAA         1.5720    16.3580    -1.4850 hn         1 TVN       0.435133
     61 HAP         -1.8070    15.3320     0.9480 hc         1 TVN       0.033200
     62 HAPA        -1.9520    15.6710    -0.7820 hc         1 TVN       0.033200
     63 HNAR        -4.4520    15.0550    -0.6190 hn         1 TVN       0.415467
     64 HNAB        -4.8680    13.5770    -0.0580 hn         1 TVN       0.415467
     65 H31          5.3520     7.2740     1.5400 hn         1 TVN       0.314500
     66 H32          6.3880     7.0960     3.6420 h1         1 TVN       0.043033
     67 HAU3         0.1230    15.8540    -2.0430 hn         1 TVN       0.435133
     68 HAR3        -4.3170    14.7540     0.9630 hn         1 TVN       0.415467
@<TRIPOS>BOND
     1     2     1 1
     2     2     5 1
     3     2     4 1
     4     3     2 1
     5     5     6 1
     6     6     7 ar
     7     6     9 ar
     8     7     8 ar
     9     7    37 1
    10     8    11 ar
    11     8    38 1
    12     9    10 ar
    13     9    39 1
    14    10    11 ar
    15    10    40 1
    16    11    12 1
    17    12    41 1
    18    12    42 1
    19    13    18 1
    20    13    43 1
    21    13    44 1
    22    14    13 1
    23    15    14 2
    24    16    14 1
    25    16    65 1
    26    17    16 1
    27    17    45 1
    28    17    46 1
    29    17    66 1
    30    18    12 1
    31    18    19 1
    32    18    47 1
    33    19    20 2
    34    19    21 1
    35    21    22 1
    36    21    48 1
    37    22    23 1
    38    22    26 1
    39    22    49 1
    40    23    25 1
    41    23    50 1
    42    24    23 1
    43    24    51 1
    44    24    52 1
    45    24    53 1
    46    25    54 1
    47    25    55 1
    48    25    56 1
    49    26    28 1
    50    26    27 2
    51    28    29 1
    52    28    57 1
    53    29    33 1
    54    29    58 1
    55    30    29 1
    56    30    31 2
    57    32    30 1
    58    32    59 1
    59    32    60 1
    60    33    61 1
    61    33    62 1
    62    34    33 1
    63    34    36 1
    64    35    34 2
    65    36    63 1
    66    36    64 1
    67    67    32 1
    68    68    36 1
@<TRIPOS>SUBSTRUCTURE
     1 TVN         1 TEMP              0 ****  ****    0 ROOT
