@<TRIPOS>MOLECULE
TVN
   66    65     1     0     0
SMALL
bcc


@<TRIPOS>ATOM
      1 OBH         0.9560   -1.0490    0.6890 o         1 TVN     -1.167333
      2 PBF         2.0990   -0.1140    0.7830 p3        1 TVN      2.481000
      3 OBI         2.5130    0.3840    2.1150 o         1 TVN     -1.167333
      4 OBG         3.0750   -0.0690   -0.3290 o         1 TVN     -1.167333
      5 OBE         0.9620    1.8610    0.2430 o         1 TVN     -0.511000
      6 CBD         0.7550    3.0580    0.6060 ca        1 TVN      0.307000
      7 CBC         1.1550    3.5480    1.9090 ca        1 TVN     -0.319000
      8 CBB         0.9830    4.8600    2.2590 ca        1 TVN     -0.069500
      9 CBJ         0.1130    4.0230   -0.2560 ca        1 TVN     -0.319000
     10 CBK        -0.0380    5.3340    0.1260 ca        1 TVN     -0.069500
     11 CBA         0.4290    5.8040    1.3640 ca        1 TVN     -0.355000
     12 CAZ         0.3270    7.2200    1.7680 c3        1 TVN     -0.050000
     13 CAF         2.0550    7.8570    0.0040 c3        1 TVN     -0.181000
     14 CAC         3.2250    7.6390    0.9520 c2        1 TVN      0.302000
     15 OAD         3.9510    8.6110    1.3000 o         1 TVN     -0.474000
     16 NAB         3.5160    6.3610    1.3330 n         1 TVN     -0.335000
     17 CAA         4.5880    6.0540    2.2270 c3        1 TVN     -0.078000
     18 CAG         0.7340    8.2030    0.6620 c3        1 TVN     -0.104000
     19 CAH         0.5920    9.6170    1.2120 c2        1 TVN      0.310000
     20 OAI        -0.5380   10.0370    1.5710 o         1 TVN     -0.453000
     21 NAJ         1.6830   10.4590    1.2750 n         1 TVN     -0.367000
     22 CAK         1.6790   11.6700    2.0500 c3        1 TVN      0.027000
     23 CAW         3.0650   12.0420    2.6230 c3        1 TVN     -0.095000
     24 CAX         3.4240   11.0920    3.7480 c3        1 TVN     -0.223500
     25 CAY         4.1650   12.0520    1.5830 c3        1 TVN     -0.223500
     26 CAL         1.1170   12.8700    1.2370 c2        1 TVN      0.299000
     27 OAM         1.8290   13.8170    0.8420 o         1 TVN     -0.408000
     28 NAN        -0.2430   12.8630    1.0170 n         1 TVN     -0.381000
     29 CAO        -0.9120   13.8360    0.1970 c3        1 TVN      0.025000
     30 CAT        -1.2640   15.1230    0.9910 c2        1 TVN      0.284000
     31 OAV        -2.4450   15.4890    1.1650 o         1 TVN     -0.400000
     32 NAU        -0.2220   15.8660    1.4710 n         1 TVN     -0.428000
     33 CAP        -2.2100   13.3010   -0.4240 c3        1 TVN     -0.186000
     34 CAQ        -1.9190   12.2440   -1.4730 c2        1 TVN      0.297000
     35 OAS        -1.8540   12.5540   -2.6840 o         1 TVN     -0.401000
     36 NAR        -1.7670   10.9450   -1.0780 n         1 TVN     -0.421000
     37 HBC         1.6040    2.8120    2.5940 ha        1 TVN      0.138000
     38 HBB         1.2920    5.2040    3.2590 ha        1 TVN      0.071500
     39 HBJ        -0.2490    3.6710   -1.2290 ha        1 TVN      0.138000
     40 HBK        -0.5310    6.0430   -0.5590 ha        1 TVN      0.071500
     41 HAZ         0.9740    7.4090    2.6670 hc        1 TVN      0.066000
     42 HAZA       -0.7290    7.4760    2.0620 hc        1 TVN      0.066000
     43 HAF         2.3570    8.6640   -0.7160 hc        1 TVN      0.117500
     44 HAFA        1.8760    6.9160   -0.5940 hc        1 TVN      0.117500
     45 HAA         4.9120    4.9930    2.0520 h1        1 TVN      0.080667
     46 HAAA        5.4510    6.7500    2.0500 h1        1 TVN      0.080667
     47 HAG        -0.0520    8.1350   -0.1510 hc        1 TVN      0.115000
     48 HNAJ        2.5870   10.0990    1.0350 hn        1 TVN      0.273000
     49 HAK         0.9770   11.5310    2.9340 h1        1 TVN      0.111000
     50 HAW         2.9570   13.0850    3.0370 hc        1 TVN      0.089000
     51 HAX         3.5820   10.0570    3.3500 hc        1 TVN      0.086333
     52 HAXA        4.3710   11.4280    4.2350 hc        1 TVN      0.086333
     53 HAXB        2.6180   11.0640    4.5190 hc        1 TVN      0.086333
     54 HAY         4.4640   11.0110    1.2990 hc        1 TVN      0.086333
     55 HAYA        3.8310   12.6020    0.6700 hc        1 TVN      0.086333
     56 HAYB        5.0650   12.5660    1.9990 hc        1 TVN      0.086333
     57 HNAN       -0.7840   12.1000    1.3670 hn        1 TVN      0.265000
     58 HAO        -0.2120   14.1470   -0.6410 h1        1 TVN      0.133000
     59 HNAU       -0.4050   16.6840    1.9940 hn        1 TVN      0.234000
     60 HNAA        0.7170   15.5720    1.3400 hn        1 TVN      0.234000
     61 HAP        -2.7290   14.1580   -0.9320 hc        1 TVN      0.128000
     62 HAPA       -2.8990   12.9160    0.3710 hc        1 TVN      0.128000
     63 HNAR       -1.5460   10.2570   -1.7550 hn        1 TVN      0.239000
     64 HNAB       -1.7410   10.6860   -0.1210 hn        1 TVN      0.239000
     65 H31         2.8420    5.6360    1.1540 hn        1 TVN      0.287000
     66 H32         4.2620    6.1590    3.2980 h1        1 TVN      0.080667
@<TRIPOS>BOND
     1    1    2 1   
     2    2    3 1   
     3    2    4 1   
     4    5    6 1   
     5    6    7 1   
     6    6    9 1   
     7    7    8 1   
     8    7   37 1   
     9    8   11 1   
    10    8   38 1   
    11    9   10 1   
    12    9   39 1   
    13   10   11 1   
    14   10   40 1   
    15   11   12 1   
    16   12   18 1   
    17   12   41 1   
    18   12   42 1   
    19   13   14 1   
    20   13   18 1   
    21   13   43 1   
    22   13   44 1   
    23   14   15 1   
    24   14   16 1   
    25   16   17 1   
    26   16   65 1   
    27   17   45 1   
    28   17   46 1   
    29   17   66 1   
    30   18   19 1   
    31   18   47 1   
    32   19   20 1   
    33   19   21 1   
    34   21   22 1   
    35   21   48 1   
    36   22   23 1   
    37   22   26 1   
    38   22   49 1   
    39   23   24 1   
    40   23   25 1   
    41   23   50 1   
    42   24   51 1   
    43   24   52 1   
    44   24   53 1   
    45   25   54 1   
    46   25   55 1   
    47   25   56 1   
    48   26   27 1   
    49   26   28 1   
    50   28   29 1   
    51   28   57 1   
    52   29   30 1   
    53   29   33 1   
    54   29   58 1   
    55   30   31 1   
    56   30   32 1   
    57   32   59 1   
    58   32   60 1   
    59   33   34 1   
    60   33   61 1   
    61   33   62 1   
    62   34   35 1   
    63   34   36 1   
    64   36   63 1   
    65   36   64 1   
@<TRIPOS>SUBSTRUCTURE
     1 TVN         1 TEMP              0 ****  ****    0 ROOT
