@<TRIPOS>MOLECULE
molecule
   29    30     1     0     0
SMALL
bcc


@<TRIPOS>ATOM
      1 O            0.0000     0.0000     0.0000 o          1 TVP      -0.595100
      2 C11          1.2130     0.0000     0.0000 c          1 TVP       0.666100
      3 C12          1.9650     0.0000     1.3060 c3         1 TVP      -0.191100
      4 N            1.8880    -0.0070    -1.1660 n          1 TVP      -0.377000
      5 C2           3.3390    -0.2370    -1.1890 c3         1 TVP       0.109700
      6 C1           3.7910    -0.8220     0.1500 c3         1 TVP      -0.137100
      7 C10          1.2160     0.2000    -2.3800 ca         1 TVP       0.070600
      8 C5           1.8340    -0.0750    -3.5890 ca         1 TVP      -0.122300
      9 C4           3.2450    -0.5970    -3.6510 c3         1 TVP      -0.031100
     10 C3           3.6380    -1.2310    -2.3190 c3         1 TVP      -0.092400
     11 C9          -0.0860     0.6860    -2.3580 ca         1 TVP      -0.152000
     12 C8          -0.7660     0.8930    -3.5410 ca         1 TVP      -0.112000
     13 C7          -0.1500     0.6160    -4.7480 ca         1 TVP      -0.151000
     14 C6           1.1440     0.1330    -4.7720 ca         1 TVP      -0.111000
     15 H121         1.3030     0.3120     2.1050 hc         1 TVP       0.069033
     16 H122         2.3330    -0.9980     1.5110 hc         1 TVP       0.069033
     17 H123         2.8010     0.6860     1.2410 hc         1 TVP       0.069033
     18 H2           3.8530     0.6970    -1.3790 h1         1 TVP       0.058700
     19 H11C         3.0610    -1.5450     0.4930 hc         1 TVP       0.054700
     20 H12C         3.8820    -0.0270     0.8800 hc         1 TVP       0.054700
     21 H13C         4.7500    -1.3100     0.0260 hc         1 TVP       0.054700
     22 H31C         3.0450    -2.1240    -2.1670 hc         1 TVP       0.057200
     23 H32C         4.7010    -1.4400    -2.3300 hc         1 TVP       0.057200
     24 H9          -0.5670     0.9020    -1.4120 ha         1 TVP       0.187000
     25 H41C         3.9190     0.2230    -3.8680 hc         1 TVP       0.052200
     26 H42C         3.3160    -1.3420    -4.4340 hc         1 TVP       0.052200
     27 H6           1.6220    -0.0820    -5.7200 ha         1 TVP       0.128000
     28 H8          -1.7810     1.2720    -3.5250 ha         1 TVP       0.132000
     29 H7          -0.6830     0.7790    -5.6770 ha         1 TVP       0.127000
@<TRIPOS>BOND
     1     1     2 2
     2     2     3 1
     3     2     4 1
     4     4     5 1
     5     4     7 1
     6     5     6 1
     7     5    10 1
     8     7     8 ar
     9     7    11 ar
    10     8     9 1
    11     8    14 ar
    12     9    10 1
    13    11    12 ar
    14    12    13 ar
    15    13    14 ar
    16     3    15 1
    17     3    16 1
    18     3    17 1
    19     5    18 1
    20     6    19 1
    21     6    20 1
    22     6    21 1
    23    10    22 1
    24    10    23 1
    25    11    24 1
    26     9    25 1
    27     9    26 1
    28    14    27 1
    29    12    28 1
    30    13    29 1
@<TRIPOS>SUBSTRUCTURE
     1 TVP         1 TEMP              0 ****  ****    0 ROOT
