@<TRIPOS>MOLECULE
TVU
   56    59     1     0     0
SMALL
bcc


@<TRIPOS>ATOM
      1 O5           0.0000     0.0000     0.0000 o          1 TVU      -0.584800
      2 S1           1.4200     0.0000     0.0000 s6         1 TVU       0.791000
      3 O4           2.1150     1.0120    -0.7140 o          1 TVU      -0.584800
      4 C19          2.0010     0.0000     1.7220 c3         1 TVU       0.000900
      5 C18          3.5050    -0.2860     1.7400 c3         1 TVU      -0.017900
      6 C20          2.0020    -1.6220    -0.5760 c3         1 TVU       0.000900
      7 C21          3.5060    -1.7340    -0.3130 c3         1 TVU      -0.017900
      8 C17          3.7770    -1.6830     1.1920 c3         1 TVU       0.002700
      9 N1           5.1770    -2.0350     1.4410 ns         1 TVU      -0.187900
     10 C16          5.5420    -3.3300     1.5250 c          1 TVU       0.639700
     11 O3           4.7080    -4.2070     1.3940 o          1 TVU      -0.642100
     12 C14          6.9440    -3.6830     1.7750 cc         1 TVU      -0.101700
     13 C13          7.4100    -4.9360     1.8760 cd         1 TVU       0.034000
     14 S            8.2470    -2.5230     1.9750 ss         1 TVU      -0.237800
     15 C15          9.4200    -3.8120     2.2050 cc         1 TVU       0.135100
     16 C12          8.7810    -5.0520     2.1160 cd         1 TVU      -0.213600
     17 C11          9.6120    -6.2590     2.2810 c          1 TVU       0.626100
     18 O2           9.1000    -7.3630     2.2100 o          1 TVU      -0.674500
     19 N           10.9300    -6.1460     2.5070 n          1 TVU       0.097000
     20 C10         11.7270    -7.3660     2.6650 c3         1 TVU       0.050300
     21 C9          11.5520    -4.9400     2.5970 cd         1 TVU      -0.121400
     22 C8          10.8660    -3.7770     2.4540 cc         1 TVU      -0.061400
     23 C4          11.5750    -2.4780     2.5490 ca         1 TVU      -0.047800
     24 C3          11.6550    -1.6430     1.4350 ca         1 TVU      -0.084000
     25 C2          12.3150    -0.4340     1.5250 ca         1 TVU      -0.176000
     26 C5          12.1570    -2.0870     3.7530 ca         1 TVU      -0.169000
     27 C6          12.8170    -0.8730     3.8380 ca         1 TVU       0.120100
     28 O1          13.3860    -0.4900     5.0120 os         1 TVU      -0.290900
     29 C7          13.2630    -1.3870     6.1160 c3         1 TVU       0.241700
     30 C1          12.8990    -0.0470     2.7200 ca         1 TVU       0.125100
     31 O           13.5490     1.1450     2.8040 os         1 TVU      -0.291900
     32 C           13.5890     1.9460     1.6210 c3         1 TVU       0.241700
     33 H191         1.4800    -0.7690     2.2790 h1         1 TVU       0.073200
     34 H192         1.8120     0.9690     2.1670 h1         1 TVU       0.073200
     35 H201         1.8130    -1.7170    -1.6380 h1         1 TVU       0.073200
     36 H202         1.4820    -2.4040    -0.0370 h1         1 TVU       0.073200
     37 H181         4.0160     0.4460     1.1260 hc         1 TVU       0.036450
     38 H182         3.8690    -0.2240     2.7590 hc         1 TVU       0.036450
     39 H17          3.1310    -2.3930     1.6930 h1         1 TVU       0.060700
     40 H211         3.8690    -2.6740    -0.7110 hc         1 TVU       0.036450
     41 H212         4.0170    -0.9110    -0.7980 hc         1 TVU       0.036450
     42 H1           5.8590    -1.3140     1.5730 hn         1 TVU       0.184500
     43 H13          6.7660    -5.8010     1.7790 ha         1 TVU       0.151000
     44 H101        12.7800    -7.1190     2.6020 h1         1 TVU       0.025700
     45 H102        11.4730    -8.0670     1.8800 h1         1 TVU       0.025700
     46 H103        11.5180    -7.8120     3.6300 h1         1 TVU       0.025700
     47 H9          12.6190    -4.9070     2.7810 h4         1 TVU       0.137000
     48 H3          11.1990    -1.9430     0.4990 ha         1 TVU       0.113000
     49 H5          12.0330    -2.6990     4.6380 ha         1 TVU       0.127000
     50 H2          12.3790     0.2120     0.6580 ha         1 TVU       0.125000
     51 H71C        12.2140    -1.5610     6.3250 h1         1 TVU      -0.002967
     52 H72C        13.7430    -2.3270     5.8730 h1         1 TVU      -0.002967
     53 H73C        13.7380    -0.9540     6.9880 h1         1 TVU      -0.002967
     54 HC1         12.5790     2.1860     1.3120 h1         1 TVU      -0.001967
     55 HC2         14.0880     1.3980     0.8310 h1         1 TVU      -0.001967
     56 HC3         14.1320     2.8620     1.8240 h1         1 TVU      -0.001967
@<TRIPOS>BOND
     1     1     2 2   
     2     2     3 2   
     3     2     4 1   
     4     2     6 1   
     5     4     5 1   
     6     4    33 1   
     7     4    34 1   
     8     5     8 1   
     9     5    37 1   
    10     5    38 1   
    11     6     7 1   
    12     6    35 1   
    13     6    36 1   
    14     7     8 1   
    15     7    40 1   
    16     7    41 1   
    17     8     9 1   
    18     8    39 1   
    19     9    10 1   
    20     9    42 1   
    21    10    11 2   
    22    10    12 1   
    23    12    13 2   
    24    12    14 1   
    25    13    16 1   
    26    13    43 1   
    27    14    15 1   
    28    15    16 2   
    29    15    22 1   
    30    16    17 1   
    31    17    18 2   
    32    17    19 1   
    33    19    20 1   
    34    19    21 1   
    35    20    44 1   
    36    20    45 1   
    37    20    46 1   
    38    21    22 2   
    39    21    47 1   
    40    22    23 1   
    41    23    24 ar  
    42    23    26 ar  
    43    24    25 ar  
    44    24    48 1   
    45    25    30 ar  
    46    25    50 1   
    47    26    27 ar  
    48    26    49 1   
    49    27    28 1   
    50    27    30 ar  
    51    28    29 1   
    52    29    51 1   
    53    29    52 1   
    54    29    53 1   
    55    30    31 1   
    56    31    32 1   
    57    32    54 1   
    58    32    55 1   
    59    32    56 1   
@<TRIPOS>SUBSTRUCTURE
     1 TVU         1 TEMP              0 ****  ****    0 ROOT
