@<TRIPOS>MOLECULE
TVZ
   29    30     1     0     0
SMALL
bcc


@<TRIPOS>ATOM
      1 N            0.0000     0.0000     0.0000 nz         1 TVZ       0.200600
      2 O            4.1790    -0.0230    -9.8200 o          1 TVZ      -0.865800
      3 C1           4.2260    -0.0110    -7.3720 ca         1 TVZ      -0.105600
      4 C10          2.0780    -0.0010    -3.6810 ca         1 TVZ      -0.125000
      5 C11          5.6110     0.0000    -4.9650 ca         1 TVZ      -0.088000
      6 C12          6.3040     0.0010    -6.1600 ca         1 TVZ      -0.140000
      7 C13          5.6230    -0.0050    -7.3600 ca         1 TVZ      -0.001000
      8 C2           3.5220    -0.0060    -6.1700 ca         1 TVZ      -0.036000
      9 C3           4.2160    -0.0000    -4.9640 cp         1 TVZ      -0.157000
     10 C4           3.4740    -0.0010    -3.6800 cp         1 TVZ       0.141000
     11 C5           4.1720     0.0000    -2.4720 ca         1 TVZ      -0.125000
     12 C6           3.4840     0.0010    -1.2790 ca         1 TVZ      -0.022500
     13 C7           2.0870     0.0000    -1.2790 ca         1 TVZ      -0.291600
     14 C8           1.3480     0.0000     0.0000 c          1 TVZ       0.355700
     15 C9           1.3890    -0.0000    -2.4890 ca         1 TVZ      -0.022500
     16 O1           1.9560     0.0000     1.0530 o          1 TVZ      -0.480100
     17 O2           2.2820    -0.0180    -8.6670 o          1 TVZ      -0.865800
     18 H3          -0.3340     0.0000     0.9440 hn         1 TVZ       0.240133
     19 H4          -0.3340    -0.8170    -0.4720 hn         1 TVZ       0.240133
     20 H6           1.5370    -0.0010    -4.6190 ha         1 TVZ       0.146500
     21 H7           6.1510     0.0040    -4.0260 ha         1 TVZ       0.091000
     22 H8           7.3870     0.0030    -6.1550 ha         1 TVZ       0.100000
     23 H9           6.1720    -0.0050    -8.2940 ha         1 TVZ       0.140000
     24 H            2.4380    -0.0060    -6.1740 ha         1 TVZ       0.123000
     25 H1           5.2550     0.0000    -2.4730 ha         1 TVZ       0.146500
     26 H2           4.0260     0.0010    -0.3410 ha         1 TVZ       0.096000
     27 H5           0.3060    -0.0000    -2.4900 ha         1 TVZ       0.096000
     28 HN3         -0.3340     0.8170    -0.4720 hn         1 TVZ       0.240133
     29 C            3.4970    -0.0180    -8.6580 c          1 TVZ       0.966200
@<TRIPOS>BOND
     1     1    14 1   
     2     1    18 1   
     3     1    19 1   
     4     1    28 1   
     5     2    29 1   
     6     3     7 ar  
     7     3     8 ar  
     8     3    29 1   
     9     4    10 ar  
    10     4    15 ar  
    11     4    20 1   
    12     5     6 ar  
    13     5     9 ar  
    14     5    21 1   
    15     6     7 ar  
    16     6    22 1   
    17     7    23 1   
    18     8     9 ar  
    19     8    24 1   
    20     9    10 1   
    21    10    11 ar  
    22    11    12 ar  
    23    11    25 1   
    24    12    13 ar  
    25    12    26 1   
    26    13    14 1   
    27    13    15 ar  
    28    14    16 2   
    29    15    27 1   
    30    17    29 1   
@<TRIPOS>SUBSTRUCTURE
     1 TVZ         1 TEMP              0 ****  ****    0 ROOT
