@<TRIPOS>MOLECULE
molecule
   73    78     1     0     0
SMALL
bcc


@<TRIPOS>ATOM
      1 O1           0.0000     0.0000     0.0000 o          1 TW5      -0.575100
      2 C1           1.2130     0.0000     0.0000 c          1 TW5       0.643100
      3 N1           1.8870     0.0060    -1.1680 ns         1 TW5      -0.478100
      4 C2           1.1930    -0.0870    -2.3740 ca         1 TW5       0.091600
      5 C3          -0.0570     0.5110    -2.5280 ca         1 TW5      -0.273800
      6 C4          -0.7110     0.3970    -3.7380 ca         1 TW5       0.434200
      7 N2          -0.1670    -0.2680    -4.7400 nb         1 TW5      -0.707000
      8 C5           1.0140    -0.8480    -4.6330 ca         1 TW5       0.434200
      9 C6           1.7340    -0.7740    -3.4600 ca         1 TW5      -0.273800
     10 C7           1.9660     0.0000     1.3050 c3         1 TW5       0.051700
     11 C8           2.8450     1.2500     1.3860 c3         1 TW5      -0.009200
     12 C9           3.6890     1.1890     2.6330 cc         1 TW5      -0.165400
     13 C10          4.9790     0.5090     2.7800 ca         1 TW5      -0.096800
     14 C11          5.7870    -0.2370     1.9200 ca         1 TW5      -0.082000
     15 C12          6.9670    -0.7520     2.3740 ca         1 TW5      -0.149000
     16 C13          7.3710    -0.5410     3.6860 ca         1 TW5      -0.105000
     17 C14          6.5890     0.1910     4.5520 ca         1 TW5      -0.139000
     18 C15          5.3830     0.7260     4.1100 ca         1 TW5      -0.034200
     19 N3           4.4030     1.4830     4.7150 na         1 TW5      -0.178400
     20 C16          3.4060     1.7530     3.8180 cd         1 TW5      -0.087100
     21 N4           1.0140    -0.0000     2.4190 ns         1 TW5      -0.559900
     22 C17          0.4990    -1.1640     2.8640 c          1 TW5       0.688700
     23 O2           0.8240    -2.2120     2.3420 o          1 TW5      -0.588100
     24 C18         -0.4590    -1.1630     3.9840 ca         1 TW5      -0.212600
     25 C19         -0.9960    -2.3710     4.4490 ca         1 TW5       0.225900
     26 F1          -0.6370    -3.5390     3.8730 f          1 TW5      -0.103900
     27 C20         -1.8930    -2.3630     5.4980 ca         1 TW5      -0.212000
     28 C21         -2.2580    -1.1580     6.0880 ca         1 TW5       0.155600
     29 C22         -1.7240     0.0410     5.6230 ca         1 TW5      -0.214000
     30 C23         -0.8310     0.0420     4.5890 ca         1 TW5      -0.052000
     31 N5          -3.1620    -1.1490     7.1460 nh         1 TW5      -0.598000
     32 C24         -4.4210    -1.8070     6.7670 c3         1 TW5       0.162300
     33 C25         -5.3550    -1.8480     7.9790 c3         1 TW5       0.161800
     34 N6          -5.6020    -0.4780     8.4510 nh         1 TW5      -0.598000
     35 C26         -4.3430     0.1790     8.8280 c3         1 TW5       0.161800
     36 C27         -3.4080     0.2210     7.6170 c3         1 TW5       0.162300
     37 C28         -6.5090    -0.4700     9.5120 ca         1 TW5       0.105600
     38 C29         -7.0410    -1.6640     9.9830 ca         1 TW5      -0.159500
     39 C30         -7.9380    -1.6540    11.0330 ca         1 TW5      -0.096500
     40 C31         -8.3060    -0.4540    11.6170 ca         1 TW5       0.004400
     41 Cl1         -9.4340    -0.4450    12.9370 cl         1 TW5      -0.111400
     42 C32         -7.7780     0.7370    11.1510 ca         1 TW5      -0.096500
     43 C33         -6.8770     0.7320    10.1040 ca         1 TW5      -0.159500
     44 H1           2.8870     0.0520    -1.1680 hn         1 TW5       0.326500
     45 H2          -0.5080     1.0580    -1.7090 ha         1 TW5       0.152000
     46 H3          -1.6830     0.8580    -3.8660 h4         1 TW5       0.024100
     47 H4           1.4260    -1.3820    -5.4810 h4         1 TW5       0.024100
     48 H5           2.7030    -1.2520    -3.3790 ha         1 TW5       0.152000
     49 H6           2.5890    -0.8840     1.3630 h1         1 TW5       0.109700
     50 H7           2.2170     2.1320     1.4180 hc         1 TW5       0.055700
     51 H8           3.4890     1.2950     0.5160 hc         1 TW5       0.055700
     52 H9           5.4790    -0.4060     0.8950 ha         1 TW5       0.123000
     53 H10          7.5940    -1.3300     1.7060 ha         1 TW5       0.131000
     54 H11          8.3090    -0.9560     4.0320 ha         1 TW5       0.133000
     55 H12          6.9120     0.3500     5.5730 ha         1 TW5       0.127000
     56 H13          4.4220     1.7940     5.6660 hn         1 TW5       0.298700
     57 H14          2.5190     2.3380     4.0320 h4         1 TW5       0.160000
     58 H15          0.7100     0.8660     2.8160 hn         1 TW5       0.315500
     59 H16         -2.3110    -3.2930     5.8620 ha         1 TW5       0.157000
     60 H17         -2.0110     0.9760     6.0880 ha         1 TW5       0.141000
     61 H18         -0.4180     0.9770     4.2310 ha         1 TW5       0.128000
     62 H19         -4.8930    -1.2490     5.9670 h1         1 TW5       0.055950
     63 H20         -4.2140    -2.8180     6.4370 h1         1 TW5       0.055950
     64 H21         -4.8920    -2.4240     8.7710 h1         1 TW5       0.054950
     65 H22         -6.2950    -2.3050     7.6930 h1         1 TW5       0.054950
     66 H23         -4.5500     1.1900     9.1580 h1         1 TW5       0.054950
     67 H24         -3.8720    -0.3780     9.6280 h1         1 TW5       0.054950
     68 H25         -3.8700     0.7970     6.8250 h1         1 TW5       0.055950
     69 H26         -2.4690     0.6780     7.9030 h1         1 TW5       0.055950
     70 H27         -6.7530    -2.6030     9.5260 ha         1 TW5       0.142500
     71 H28         -8.3530    -2.5850    11.4010 ha         1 TW5       0.145000
     72 H29         -8.0670     1.6740    11.6110 ha         1 TW5       0.145000
     73 H30         -6.4640     1.6640     9.7390 ha         1 TW5       0.142500
@<TRIPOS>BOND
     1    41    40 1
     2    39    38 ar
     3    39    40 ar
     4    38    37 ar
     5    40    42 ar
     6    33    32 1
     7    33    34 1
     8    23    22 2
     9    37    34 1
    10    37    43 ar
    11    30    29 ar
    12    30    24 ar
    13    42    43 ar
    14    29    28 ar
    15    32    31 1
    16    34    35 1
    17     1     2 2
    18     6     5 ar
    19     6     7 ar
    20     5     4 ar
    21    22    24 1
    22    22    21 1
    23    24    25 ar
    24    28    31 1
    25    28    27 ar
    26    31    36 1
    27     2     3 1
    28     2    10 1
    29    35    36 1
    30     7     8 ar
    31     4     3 1
    32     4     9 ar
    33    25    27 ar
    34    25    26 1
    35    21    10 1
    36    10    11 1
    37     8     9 ar
    38    11    12 1
    39    20    12 2
    40    20    19 1
    41    12    13 1
    42    19    18 1
    43    13    18 ar
    44    13    14 ar
    45    18    17 ar
    46    14    15 ar
    47    17    16 ar
    48    15    16 ar
    49     3    44 1
    50     5    45 1
    51     6    46 1
    52     8    47 1
    53     9    48 1
    54    10    49 1
    55    11    50 1
    56    11    51 1
    57    14    52 1
    58    15    53 1
    59    16    54 1
    60    17    55 1
    61    19    56 1
    62    20    57 1
    63    21    58 1
    64    27    59 1
    65    29    60 1
    66    30    61 1
    67    32    62 1
    68    32    63 1
    69    33    64 1
    70    33    65 1
    71    35    66 1
    72    35    67 1
    73    36    68 1
    74    36    69 1
    75    38    70 1
    76    39    71 1
    77    42    72 1
    78    43    73 1
@<TRIPOS>SUBSTRUCTURE
     1 TW5         1 TEMP              0 ****  ****    0 ROOT
