@<TRIPOS>MOLECULE
TW5
   73    78     1     0     0
SMALL
bcc


@<TRIPOS>ATOM
      1 O1           0.0000     0.0000     0.0000 o          1 TW5      -0.621100
      2 C1           1.2130     0.0000     0.0000 c          1 TW5       0.550100
      3 N1           1.8870     0.0060    -1.1680 ns         1 TW5      -0.030100
      4 C2           1.1930    -0.0870    -2.3740 ca         1 TW5      -0.058400
      5 C3          -0.0570     0.5110    -2.5280 ca         1 TW5      -0.242800
      6 C4          -0.7110     0.3970    -3.7380 ca         1 TW5       0.422700
      7 N2          -0.1670    -0.2680    -4.7400 nb         1 TW5      -0.598000
      8 C5           1.0140    -0.8480    -4.6330 ca         1 TW5       0.422700
      9 C6           1.7340    -0.7740    -3.4600 ca         1 TW5      -0.242800
     10 C7           1.9660     0.0000     1.3050 c3         1 TW5      -0.055300
     11 C8           2.8450     1.2500     1.3860 c3         1 TW5       0.067800
     12 C9           3.6890     1.1890     2.6330 cc         1 TW5      -0.168400
     13 C10          4.9790     0.5090     2.7800 ca         1 TW5      -0.090800
     14 C11          5.7870    -0.2370     1.9200 ca         1 TW5      -0.048000
     15 C12          6.9670    -0.7520     2.3740 ca         1 TW5      -0.122000
     16 C13          7.3710    -0.5410     3.6860 ca         1 TW5      -0.081000
     17 C14          6.5890     0.1910     4.5520 ca         1 TW5      -0.098000
     18 C15          5.3830     0.7260     4.1100 ca         1 TW5      -0.224200
     19 N3           4.4030     1.4830     4.7150 na         1 TW5       0.362600
     20 C16          3.4060     1.7530     3.8180 cd         1 TW5      -0.259100
     21 N4           1.0140    -0.0000     2.4190 ns         1 TW5      -0.165900
     22 C17          0.4990    -1.1640     2.8640 c          1 TW5       0.609700
     23 O2           0.8240    -2.2120     2.3420 o          1 TW5      -0.632100
     24 C18         -0.4590    -1.1630     3.9840 ca         1 TW5      -0.212600
     25 C19         -0.9960    -2.3710     4.4490 ca         1 TW5       0.213900
     26 F1          -0.6370    -3.5390     3.8730 f          1 TW5      -0.106900
     27 C20         -1.8930    -2.3630     5.4980 ca         1 TW5      -0.184000
     28 C21         -2.2580    -1.1580     6.0880 ca         1 TW5       0.071600
     29 C22         -1.7240     0.0410     5.6230 ca         1 TW5      -0.196000
     30 C23         -0.8310     0.0420     4.5890 ca         1 TW5      -0.028000
     31 N5          -3.1620    -1.1490     7.1460 nh         1 TW5      -0.360000
     32 C24         -4.4210    -1.8070     6.7670 c3         1 TW5       0.133800
     33 C25         -5.3550    -1.8480     7.9790 c3         1 TW5       0.134300
     34 N6          -5.6020    -0.4780     8.4510 nh         1 TW5      -0.363000
     35 C26         -4.3430     0.1790     8.8280 c3         1 TW5       0.134300
     36 C27         -3.4080     0.2210     7.6170 c3         1 TW5       0.133800
     37 C28         -6.5090    -0.4700     9.5120 ca         1 TW5       0.022600
     38 C29         -7.0410    -1.6640     9.9830 ca         1 TW5      -0.137500
     39 C30         -7.9380    -1.6540    11.0330 ca         1 TW5      -0.070500
     40 C31         -8.3060    -0.4540    11.6170 ca         1 TW5      -0.058600
     41 Cl1         -9.4340    -0.4450    12.9370 cl         1 TW5      -0.029400
     42 C32         -7.7780     0.7370    11.1510 ca         1 TW5      -0.070500
     43 C33         -6.8770     0.7320    10.1040 ca         1 TW5      -0.137500
     44 H1           2.8870     0.0520    -1.1680 hn         1 TW5       0.171500
     45 H2          -0.5080     1.0580    -1.7090 ha         1 TW5       0.132500
     46 H3          -1.6830     0.8580    -3.8660 h4         1 TW5      -0.020900
     47 H4           1.4260    -1.3820    -5.4810 h4         1 TW5      -0.020900
     48 H5           2.7030    -1.2520    -3.3790 ha         1 TW5       0.132500
     49 H6           2.5890    -0.8840     1.3630 h1         1 TW5       0.080700
     50 H7           2.2170     2.1320     1.4180 hc         1 TW5       0.021200
     51 H8           3.4890     1.2950     0.5160 hc         1 TW5       0.021200
     52 H9           5.4790    -0.4060     0.8950 ha         1 TW5       0.096000
     53 H10          7.5940    -1.3300     1.7060 ha         1 TW5       0.104000
     54 H11          8.3090    -0.9560     4.0320 ha         1 TW5       0.103000
     55 H12          6.9120     0.3500     5.5730 ha         1 TW5       0.101000
     56 H13          4.4220     1.7940     5.6660 hn         1 TW5       0.115700
     57 H14          2.5190     2.3380     4.0320 h4         1 TW5       0.137000
     58 H15          0.7100     0.8660     2.8160 hn         1 TW5       0.177500
     59 H16         -2.3110    -3.2930     5.8620 ha         1 TW5       0.134000
     60 H17         -2.0110     0.9760     6.0880 ha         1 TW5       0.127000
     61 H18         -0.4180     0.9770     4.2310 ha         1 TW5       0.101000
     62 H19         -4.8930    -1.2490     5.9670 h1         1 TW5       0.028700
     63 H20         -4.2140    -2.8180     6.4370 h1         1 TW5       0.028700
     64 H21         -4.8920    -2.4240     8.7710 h1         1 TW5       0.027700
     65 H22         -6.2950    -2.3050     7.6930 h1         1 TW5       0.027700
     66 H23         -4.5500     1.1900     9.1580 h1         1 TW5       0.027700
     67 H24         -3.8720    -0.3780     9.6280 h1         1 TW5       0.027700
     68 H25         -3.8700     0.7970     6.8250 h1         1 TW5       0.028700
     69 H26         -2.4690     0.6780     7.9030 h1         1 TW5       0.028700
     70 H27         -6.7530    -2.6030     9.5260 ha         1 TW5       0.121000
     71 H28         -8.3530    -2.5850    11.4010 ha         1 TW5       0.114000
     72 H29         -8.0670     1.6740    11.6110 ha         1 TW5       0.114000
     73 H30         -6.4640     1.6640     9.7390 ha         1 TW5       0.121000
@<TRIPOS>BOND
     1     1     2 2   
     2     2     3 1   
     3     2    10 1   
     4     3     4 1   
     5     3    44 1   
     6     4     5 ar  
     7     4     9 ar  
     8     5     6 ar  
     9     5    45 1   
    10     6     7 ar  
    11     6    46 1   
    12     7     8 ar  
    13     8     9 ar  
    14     8    47 1   
    15     9    48 1   
    16    10    11 1   
    17    10    21 1   
    18    10    49 1   
    19    11    12 1   
    20    11    50 1   
    21    11    51 1   
    22    12    13 1   
    23    12    20 2   
    24    13    14 ar  
    25    13    18 ar  
    26    14    15 ar  
    27    14    52 1   
    28    15    16 ar  
    29    15    53 1   
    30    16    17 ar  
    31    16    54 1   
    32    17    18 ar  
    33    17    55 1   
    34    18    19 1   
    35    19    20 1   
    36    19    56 1   
    37    20    57 1   
    38    21    22 1   
    39    21    58 1   
    40    22    23 2   
    41    22    24 1   
    42    24    25 ar  
    43    24    30 ar  
    44    25    26 1   
    45    25    27 ar  
    46    27    28 ar  
    47    27    59 1   
    48    28    29 ar  
    49    28    31 1   
    50    29    30 ar  
    51    29    60 1   
    52    30    61 1   
    53    31    32 1   
    54    31    36 1   
    55    32    33 1   
    56    32    62 1   
    57    32    63 1   
    58    33    34 1   
    59    33    64 1   
    60    33    65 1   
    61    34    35 1   
    62    34    37 1   
    63    35    36 1   
    64    35    66 1   
    65    35    67 1   
    66    36    68 1   
    67    36    69 1   
    68    37    38 ar  
    69    37    43 ar  
    70    38    39 ar  
    71    38    70 1   
    72    39    40 ar  
    73    39    71 1   
    74    40    41 1   
    75    40    42 ar  
    76    42    43 ar  
    77    42    72 1   
    78    43    73 1   
@<TRIPOS>SUBSTRUCTURE
     1 TW5         1 TEMP              0 ****  ****    0 ROOT
