@<TRIPOS>MOLECULE
TWL
   28    29     1     0     0
SMALL
bcc


@<TRIPOS>ATOM
      1 C01         0.3790    0.9470   -0.1450 c3        1 TWL     -0.100100
      2 C02         1.5380   -0.0150   -0.0600 c3        1 TWL      0.137400
      3 O03         2.0800    0.1210    1.2660 os        1 TWL     -0.442900
      4 C04         3.1490   -0.6730    1.5750 c         1 TWL      0.632100
      5 C05         3.6430   -0.4600    2.9820 c3        1 TWL     -0.106700
      6 C06         5.0190    0.2000    2.9290 c3        1 TWL     -0.068400
      7 C07         5.5420    0.5420    4.3170 c3        1 TWL     -0.007100
      8 C08         5.3070   -0.5980    5.2230 cc        1 TWL     -0.111600
      9 C09         4.4360   -1.6760    4.9560 cd        1 TWL     -0.252600
     10 C10         3.6740   -1.8060    3.7120 c3        1 TWL      0.007900
     11 C11         4.5230   -2.5170    6.1240 cd        1 TWL      0.310200
     12 N12         5.3890   -1.9710    7.0210 nc        1 TWL     -0.516800
     13 N13         5.8480   -0.8380    6.4880 na        1 TWL     -0.007600
     14 O14         3.5770   -1.4410    0.7120 o         1 TWL     -0.540000
     15 H011        0.7240    1.9940    0.0300 hc        1 TWL      0.048033
     16 H012       -0.3930    0.7000    0.6230 hc        1 TWL      0.048033
     17 H013       -0.0790    0.8770   -1.1600 hc        1 TWL      0.048033
     18 H021        1.2130   -1.0780   -0.2080 h1        1 TWL      0.051700
     19 H022        2.3410    0.2280   -0.8030 h1        1 TWL      0.051700
     20 H05         2.9300    0.2290    3.5160 hc        1 TWL      0.086700
     21 H061        4.9570    1.1400    2.3220 hc        1 TWL      0.061200
     22 H062        5.7340   -0.4960    2.4160 hc        1 TWL      0.061200
     23 H101        4.1510   -2.5800    3.0470 hc        1 TWL      0.065200
     24 H102        2.6240   -2.1410    3.9220 hc        1 TWL      0.065200
     25 H071        6.6350    0.7900    4.2510 hc        1 TWL      0.057700
     26 H072        5.0110    1.4500    4.7130 hc        1 TWL      0.057700
     27 H13         6.5040   -0.2770    6.9760 hn        1 TWL      0.320700
     28 H11         4.0030   -3.4550    6.3170 h4        1 TWL      0.044100
@<TRIPOS>BOND
     1    1    2 1   
     2    1   15 1   
     3    1   16 1   
     4    1   17 1   
     5    2    3 1   
     6    2   18 1   
     7    2   19 1   
     8    3    4 1   
     9    4    5 1   
    10    4   14 2   
    11    5    6 1   
    12    5   10 1   
    13    5   20 1   
    14    6    7 1   
    15    6   21 1   
    16    6   22 1   
    17    7    8 1   
    18    7   25 1   
    19    7   26 1   
    20    8    9 2   
    21    8   13 1   
    22    9   10 1   
    23    9   11 1   
    24   10   23 1   
    25   10   24 1   
    26   11   12 2   
    27   11   28 1   
    28   12   13 1   
    29   13   27 1   
@<TRIPOS>SUBSTRUCTURE
     1 TWL         1 TEMP              0 ****  ****    0 ROOT
