@<TRIPOS>MOLECULE
molecule
   28    29     1     0     0
SMALL
bcc


@<TRIPOS>ATOM
      1 C01          0.0000     0.0000     0.0000 c3         1 TWL      -0.096100
      2 C02          1.5300     0.0000     0.0000 c3         1 TWL       0.144400
      3 O03          2.0140     0.0000     1.3690 os         1 TWL      -0.429900
      4 C04          3.3450     0.0000     1.5440 c          1 TWL       0.635100
      5 C05          3.9210    -0.0000     2.9370 c3         1 TWL      -0.121700
      6 C06          5.4510     0.0010     2.8570 c3         1 TWL      -0.060400
      7 C07          6.0360     0.2580     4.2510 c3         1 TWL      -0.020100
      8 C08          5.3780    -0.6860     5.2250 cc         1 TWL      -0.076600
      9 C09          4.2260    -1.3590     4.9740 cd         1 TWL      -0.317600
     10 C10          3.4480    -1.2520     3.6860 c3         1 TWL       0.014900
     11 C11          3.9250    -2.1310     6.0940 cd         1 TWL       0.347200
     12 N12          4.8610    -1.9290     6.9900 nc         1 TWL      -0.513800
     13 N13          5.7870    -1.0190     6.4600 na         1 TWL      -0.034600
     14 O14          4.0810     0.0010     0.5860 o          1 TWL      -0.551000
     15 H011        -0.3610     0.0310    -1.0210 hc         1 TWL       0.047367
     16 H012        -0.3610    -0.9000     0.4830 hc         1 TWL       0.047367
     17 H013        -0.3610     0.8680     0.5380 hc         1 TWL       0.047367
     18 H021         1.8910    -0.8850    -0.5110 h1         1 TWL       0.049200
     19 H022         1.8910     0.8850    -0.5110 h1         1 TWL       0.049200
     20 H05          3.5900     0.8830     3.4700 hc         1 TWL       0.080700
     21 H061         5.7540     0.8140     2.2080 hc         1 TWL       0.067200
     22 H062         5.7720    -0.9820     2.5320 hc         1 TWL       0.067200
     23 H101         2.4000    -1.1280     3.9300 hc         1 TWL       0.061700
     24 H102         3.6760    -2.1190     3.0780 hc         1 TWL       0.061700
     25 H071         7.0960     0.0340     4.2220 hc         1 TWL       0.061200
     26 H072         5.7920     1.2730     4.5410 hc         1 TWL       0.061200
     27 H13          6.6080    -0.6780     6.9210 hn         1 TWL       0.328700
     28 H11          3.0680    -2.7830     6.2060 h4         1 TWL       0.049100
@<TRIPOS>BOND
     1     1     2 1
     2     2     3 1
     3     3     4 1
     4     4     5 1
     5     4    14 2
     6     5     6 1
     7     5    10 1
     8     6     7 1
     9     7     8 1
    10     8     9 2
    11     8    13 1
    12     9    10 1
    13     9    11 1
    14    11    12 2
    15    12    13 1
    16     1    15 1
    17     1    16 1
    18     1    17 1
    19     2    18 1
    20     2    19 1
    21     5    20 1
    22     6    21 1
    23     6    22 1
    24    10    23 1
    25    10    24 1
    26     7    25 1
    27     7    26 1
    28    13    27 1
    29    11    28 1
@<TRIPOS>SUBSTRUCTURE
     1 TWL         1 TEMP              0 ****  ****    0 ROOT
