@<TRIPOS>MOLECULE
molecule
   67    67     1     0     0
SMALL
bcc


@<TRIPOS>ATOM
      1 OAG          0.0000     0.0000     0.0000 o          1 TWN      -0.555000
      2 CAE          1.2090     0.0000     0.0000 c          1 TWN       0.635100
      3 OAI          1.8790     0.0000     1.1620 os         1 TWN      -0.442900
      4 CAJ          1.1540    -0.0000     2.4200 c3         1 TWN       0.153400
      5 CAM          2.1490    -0.0000     3.5830 c3         1 TWN      -0.079400
      6 CAH          1.3840    -0.0000     4.9080 c3         1 TWN      -0.071700
      7 CAO          0.6020     1.3080     5.0450 c3         1 TWN      -0.097100
      8 CAB          2.3740    -0.1270     6.0680 c3         1 TWN       0.147100
      9 OAA          3.0720    -1.3790     5.9930 os         1 TWN      -0.419600
     10 CAD          3.2900    -1.8970     7.3100 c3         1 TWN       0.134400
     11 CAF          2.6430    -0.9150     8.3110 c3         1 TWN      -0.107700
     12 CAN          1.9400    -1.6730     9.4400 c3         1 TWN      -0.082100
     13 CAC          1.6160    -0.1630     7.4190 c3         1 TWN      -0.100700
     14 CAK          0.3110    -0.9500     7.2970 c3         1 TWN      -0.087100
     15 CAL          1.9610    -0.0000    -1.3060 c3         1 TWN      -0.124400
     16 CAP          0.9670    -0.0010    -2.4670 c3         1 TWN      -0.072400
     17 CAW          1.7310    -0.0010    -3.7930 c3         1 TWN      -0.084400
     18 CAS          0.7370     0.0000    -4.9560 c3         1 TWN      -0.080400
     19 CAX          1.5020    -0.0010    -6.2810 c3         1 TWN      -0.082400
     20 CAT          0.5070    -0.0000    -7.4440 c3         1 TWN      -0.081400
     21 CAU          1.2720    -0.0000    -8.7680 c3         1 TWN      -0.082400
     22 CAV          0.2770    -0.0000    -9.9310 c3         1 TWN      -0.082400
     23 CAR          1.0420    -0.0010   -11.2570 c3         1 TWN      -0.081400
     24 CAQ          0.0470     0.0000   -12.4190 c3         1 TWN      -0.084400
     25 CAY          0.8110     0.0000   -13.7450 c3         1 TWN      -0.092100
     26 HAJ1         0.5310     0.8840     2.4780 h1         1 TWN       0.046700
     27 HAJ2         0.5310    -0.8850     2.4770 h1         1 TWN       0.046700
     28 HAM1         2.7710    -0.8850     3.5250 hc         1 TWN       0.061700
     29 HAM2         2.7720     0.8840     3.5250 hc         1 TWN       0.061700
     30 HAH          0.6960    -0.8360     4.9280 hc         1 TWN       0.065700
     31 HAO1         0.9360     2.0100     4.2900 hc         1 TWN       0.039033
     32 HAO2         0.7710     1.7290     6.0290 hc         1 TWN       0.039033
     33 HAO3        -0.4550     1.1120     4.9130 hc         1 TWN       0.039033
     34 HAB          3.0800     0.6950     6.0580 h1         1 TWN       0.050700
     35 HAD1         4.3540    -1.9690     7.5040 h1         1 TWN       0.044700
     36 HAD2         2.8270    -2.8720     7.4020 h1         1 TWN       0.044700
     37 HAF          3.3830    -0.2280     8.7040 hc         1 TWN       0.060700
     38 HAN1         1.4080    -2.5220     9.0280 hc         1 TWN       0.038367
     39 HAN2         1.2380    -1.0130     9.9350 hc         1 TWN       0.038367
     40 HAN3         2.6760    -2.0200    10.1550 hc         1 TWN       0.038367
     41 HAC          1.4420     0.8400     7.7920 hc         1 TWN       0.062700
     42 HAK1        -0.4020    -0.3790     6.7150 hc         1 TWN       0.041033
     43 HAK2         0.5040    -1.8960     6.8050 hc         1 TWN       0.041033
     44 HAK3        -0.0940    -1.1330     8.2850 hc         1 TWN       0.041033
     45 HAL1         2.5840     0.8840    -1.3640 hc         1 TWN       0.071200
     46 HAL2         2.5840    -0.8850    -1.3630 hc         1 TWN       0.071200
     47 HAP1         0.3440    -0.8850    -2.4090 hc         1 TWN       0.058700
     48 HAP2         0.3440     0.8840    -2.4100 hc         1 TWN       0.058700
     49 HAW1         2.3550     0.8830    -3.8500 hc         1 TWN       0.040700
     50 HAW2         2.3530    -0.8860    -3.8510 hc         1 TWN       0.040700
     51 HAS1         0.1130    -0.8840    -4.8980 hc         1 TWN       0.043700
     52 HAS2         0.1150     0.8850    -4.8980 hc         1 TWN       0.043700
     53 HAX1         2.1250     0.8830    -6.3390 hc         1 TWN       0.040700
     54 HAX2         2.1240    -0.8860    -6.3380 hc         1 TWN       0.040700
     55 HAT1        -0.1160     0.8840    -7.3860 hc         1 TWN       0.041700
     56 HAT2        -0.1160    -0.8850    -7.3870 hc         1 TWN       0.041700
     57 HAU1         1.8940     0.8850    -8.8260 hc         1 TWN       0.040700
     58 HAU2         1.8950    -0.8840    -8.8260 hc         1 TWN       0.040700
     59 HAV1        -0.3460    -0.8850    -9.8730 hc         1 TWN       0.040700
     60 HAV2        -0.3450     0.8840    -9.8740 hc         1 TWN       0.040700
     61 HAR1         1.6640    -0.8860   -11.3150 hc         1 TWN       0.040700
     62 HAR2         1.6650     0.8830   -11.3140 hc         1 TWN       0.040700
     63 HAQ1        -0.5750     0.8860   -12.3620 hc         1 TWN       0.039700
     64 HAQ2        -0.5770    -0.8830   -12.3620 hc         1 TWN       0.039700
     65 HAY1         0.1070     0.0140   -14.5680 hc         1 TWN       0.032367
     66 HAY2         1.4450     0.8770   -13.7970 hc         1 TWN       0.032367
     67 HAY3         1.4240    -0.8910   -13.8090 hc         1 TWN       0.032367
@<TRIPOS>BOND
     1     1     2 2
     2     2     3 1
     3     2    15 1
     4     3     4 1
     5     4     5 1
     6     4    26 1
     7     4    27 1
     8     5     6 1
     9     5    28 1
    10     5    29 1
    11     6     7 1
    12     6     8 1
    13     6    30 1
    14     7    31 1
    15     7    32 1
    16     7    33 1
    17     8     9 1
    18     8    13 1
    19     8    34 1
    20     9    10 1
    21    10    11 1
    22    10    35 1
    23    10    36 1
    24    11    12 1
    25    11    13 1
    26    11    37 1
    27    12    38 1
    28    12    39 1
    29    12    40 1
    30    13    14 1
    31    13    41 1
    32    14    42 1
    33    14    43 1
    34    14    44 1
    35    15    16 1
    36    15    45 1
    37    15    46 1
    38    16    17 1
    39    16    47 1
    40    16    48 1
    41    17    18 1
    42    17    49 1
    43    17    50 1
    44    18    19 1
    45    18    51 1
    46    18    52 1
    47    19    20 1
    48    19    53 1
    49    19    54 1
    50    20    21 1
    51    20    55 1
    52    20    56 1
    53    21    22 1
    54    21    57 1
    55    21    58 1
    56    22    23 1
    57    22    59 1
    58    22    60 1
    59    23    24 1
    60    23    61 1
    61    23    62 1
    62    24    25 1
    63    24    63 1
    64    24    64 1
    65    25    65 1
    66    25    66 1
    67    25    67 1
@<TRIPOS>SUBSTRUCTURE
     1 TWN         1 TEMP              0 ****  ****    0 ROOT
