@<TRIPOS>MOLECULE
TWN
   67    67     1     0     0
SMALL
bcc


@<TRIPOS>ATOM
      1 OAG        -0.7510   -0.7030    0.2420 o         1 TWN     -0.547000
      2 CAE         0.4700   -0.6420    0.0790 c         1 TWN      0.631100
      3 OAI         1.2570   -0.3710    1.1640 os        1 TWN     -0.441900
      4 CAJ         0.5810   -0.1940    2.4210 c3        1 TWN      0.140400
      5 CAM         1.6690    0.0700    3.4450 c3        1 TWN     -0.082400
      6 CAH         1.0870    0.1370    4.8510 c3        1 TWN     -0.060700
      7 CAO         0.1870    1.3470    5.0050 c3        1 TWN     -0.098100
      8 CAB         2.2170    0.2050    5.8770 c3        1 TWN      0.144100
      9 OAA         3.1920   -0.8060    5.5620 os        1 TWN     -0.425600
     10 CAD         3.7660   -1.3210    6.7670 c3        1 TWN      0.127400
     11 CAF         3.0910   -0.6300    7.9580 c3        1 TWN     -0.092700
     12 CAN         2.8590   -1.5740    9.1070 c3        1 TWN     -0.085100
     13 CAC         1.8240    0.0050    7.3570 c3        1 TWN     -0.082700
     14 CAK         0.5930   -0.8430    7.5590 c3        1 TWN     -0.090100
     15 CAL         1.2660   -0.8440   -1.1730 c3        1 TWN     -0.127400
     16 CAP         0.5310   -0.3010   -2.3790 c3        1 TWN     -0.079400
     17 CAW         1.2730   -0.6330   -3.6550 c3        1 TWN     -0.078400
     18 CAS         0.5520   -0.0770   -4.8650 c3        1 TWN     -0.079400
     19 CAX         1.2890   -0.4120   -6.1440 c3        1 TWN     -0.079400
     20 CAT         0.5680    0.1430   -7.3540 c3        1 TWN     -0.079400
     21 CAU         1.3050   -0.1910   -8.6330 c3        1 TWN     -0.078400
     22 CAV         0.5840    0.3630   -9.8430 c3        1 TWN     -0.079400
     23 CAR         1.3200    0.0290  -11.1220 c3        1 TWN     -0.079400
     24 CAQ         0.6000    0.5820  -12.3340 c3        1 TWN     -0.080400
     25 CAY         1.3300    0.2520  -13.6100 c3        1 TWN     -0.092100
     26 HAJ1       -0.1300    0.6670    2.3270 h1        1 TWN      0.049700
     27 HAJ2        0.0030   -1.1260    2.6550 h1        1 TWN      0.049700
     28 HAM1        2.4330   -0.7510    3.3930 hc        1 TWN      0.066200
     29 HAM2        2.1930    1.0290    3.2000 hc        1 TWN      0.066200
     30 HAH         0.4910   -0.8020    5.0290 hc        1 TWN      0.060700
     31 HAO1        0.7060    2.2710    4.6520 hc        1 TWN      0.038367
     32 HAO2       -0.1000    1.4940    6.0740 hc        1 TWN      0.038367
     33 HAO3       -0.7450    1.2130    4.4040 hc        1 TWN      0.038367
     34 HAB         2.7400    1.1990    5.7720 h1        1 TWN      0.041700
     35 HAD1        4.8650   -1.1110    6.7260 h1        1 TWN      0.045700
     36 HAD2        3.5890   -2.4270    6.7640 h1        1 TWN      0.045700
     37 HAF         3.7580    0.2040    8.3140 hc        1 TWN      0.053700
     38 HAN1        2.2540   -2.4580    8.7910 hc        1 TWN      0.039033
     39 HAN2        3.8390   -1.9430    9.4980 hc        1 TWN      0.039033
     40 HAN3        2.3210   -1.0530    9.9360 hc        1 TWN      0.039033
     41 HAC         1.6460    1.0100    7.8250 hc        1 TWN      0.057700
     42 HAK1        0.7300   -1.8530    7.1010 hc        1 TWN      0.040367
     43 HAK2       -0.3010   -0.3600    7.0950 hc        1 TWN      0.040367
     44 HAK3        0.3870   -0.9720    8.6500 hc        1 TWN      0.040367
     45 HAL1        1.4370   -1.9490   -1.2840 hc        1 TWN      0.077700
     46 HAL2        2.2680   -0.3520   -1.0660 hc        1 TWN      0.077700
     47 HAP1        0.4210    0.8120   -2.2830 hc        1 TWN      0.057200
     48 HAP2       -0.5050   -0.7340   -2.4120 hc        1 TWN      0.057200
     49 HAW1        2.3120   -0.2100   -3.6090 hc        1 TWN      0.040700
     50 HAW2        1.3720   -1.7460   -3.7560 hc        1 TWN      0.040700
     51 HAS1       -0.4870   -0.4970   -4.9080 hc        1 TWN      0.042700
     52 HAS2        0.4550    1.0360   -4.7660 hc        1 TWN      0.042700
     53 HAX1        1.3860   -1.5250   -6.2420 hc        1 TWN      0.039700
     54 HAX2        2.3290    0.0080   -6.1000 hc        1 TWN      0.039700
     55 HAT1        0.4710    1.2560   -7.2560 hc        1 TWN      0.040200
     56 HAT2       -0.4710   -0.2770   -7.3970 hc        1 TWN      0.040200
     57 HAU1        2.3440    0.2290   -8.5890 hc        1 TWN      0.039700
     58 HAU2        1.4030   -1.3050   -8.7310 hc        1 TWN      0.039700
     59 HAV1        0.4860    1.4760   -9.7450 hc        1 TWN      0.039700
     60 HAV2       -0.4560   -0.0580   -9.8860 hc        1 TWN      0.039700
     61 HAR1        2.3590    0.4490  -11.0790 hc        1 TWN      0.039700
     62 HAR2        1.4180   -1.0850  -11.2200 hc        1 TWN      0.039700
     63 HAQ1        0.5010    1.6950  -12.2330 hc        1 TWN      0.038700
     64 HAQ2       -0.4400    0.1610  -12.3740 hc        1 TWN      0.038700
     65 HAY1        2.3600    0.6840  -13.5980 hc        1 TWN      0.032700
     66 HAY2        1.4160   -0.8540  -13.7400 hc        1 TWN      0.032700
     67 HAY3        0.7820    0.6690  -14.4890 hc        1 TWN      0.032700
@<TRIPOS>BOND
     1    1    2 2   
     2    2    3 1   
     3    2   15 1   
     4    3    4 1   
     5    4    5 1   
     6    4   26 1   
     7    4   27 1   
     8    5    6 1   
     9    5   28 1   
    10    5   29 1   
    11    6    7 1   
    12    6    8 1   
    13    6   30 1   
    14    7   31 1   
    15    7   32 1   
    16    7   33 1   
    17    8    9 1   
    18    8   13 1   
    19    8   34 1   
    20    9   10 1   
    21   10   11 1   
    22   10   35 1   
    23   10   36 1   
    24   11   12 1   
    25   11   13 1   
    26   11   37 1   
    27   12   38 1   
    28   12   39 1   
    29   12   40 1   
    30   13   14 1   
    31   13   41 1   
    32   14   42 1   
    33   14   43 1   
    34   14   44 1   
    35   15   16 1   
    36   15   45 1   
    37   15   46 1   
    38   16   17 1   
    39   16   47 1   
    40   16   48 1   
    41   17   18 1   
    42   17   49 1   
    43   17   50 1   
    44   18   19 1   
    45   18   51 1   
    46   18   52 1   
    47   19   20 1   
    48   19   53 1   
    49   19   54 1   
    50   20   21 1   
    51   20   55 1   
    52   20   56 1   
    53   21   22 1   
    54   21   57 1   
    55   21   58 1   
    56   22   23 1   
    57   22   59 1   
    58   22   60 1   
    59   23   24 1   
    60   23   61 1   
    61   23   62 1   
    62   24   25 1   
    63   24   63 1   
    64   24   64 1   
    65   25   65 1   
    66   25   66 1   
    67   25   67 1   
@<TRIPOS>SUBSTRUCTURE
     1 TWN         1 TEMP              0 ****  ****    0 ROOT
