@<TRIPOS>MOLECULE
molecule
   22    22     1     0     0
SMALL
bcc


@<TRIPOS>ATOM
      1 O1           0.0000     0.0000     0.0000 o          1 TWO      -0.839800
      2 C7           1.2160     0.0000     0.0000 c          1 TWO       0.884200
      3 O2           1.8900     0.0000     1.1670 o          1 TWO      -0.839800
      4 C5           1.9530    -0.0050    -1.2770 ca         1 TWO      -0.100600
      5 C4           1.2540    -0.0120    -2.4890 ca         1 TWO      -0.161000
      6 C3           1.9500    -0.0180    -3.6820 ca         1 TWO       0.079100
      7 O4           1.2740    -0.0220    -4.8630 os         1 TWO      -0.337900
      8 C9          -0.1540    -0.0220    -4.7930 c3         1 TWO       0.130700
      9 C2           3.3440    -0.0180    -3.6770 ca         1 TWO       0.081100
     10 O3           4.0250    -0.0230    -4.8510 os         1 TWO      -0.329900
     11 C8           5.4520    -0.0220    -4.7730 c3         1 TWO       0.133700
     12 C1           4.0360    -0.0120    -2.4740 ca         1 TWO      -0.218000
     13 C6           3.3500    -0.0000    -1.2800 ca         1 TWO      -0.094000
     14 H2           0.1740    -0.0970    -2.4910 ha         1 TWO       0.156000
     15 H3          -0.5650    -0.0050    -5.7950 h1         1 TWO       0.033033
     16 H4          -0.4910    -0.9140    -4.2800 h1         1 TWO       0.033033
     17 H5          -0.4890     0.8550    -4.2510 h1         1 TWO       0.033033
     18 H6           5.7850     0.8650    -4.2480 h1         1 TWO       0.028033
     19 H7           5.7850    -0.9040    -4.2390 h1         1 TWO       0.028033
     20 H8           5.8680    -0.0280    -5.7730 h1         1 TWO       0.028033
     21 H9           5.1200    -0.0100    -2.4750 ha         1 TWO       0.116000
     22 H10          3.8930     0.0040    -0.3420 ha         1 TWO       0.156000
@<TRIPOS>BOND
     1     1     2 1
     2     2     4 1
     3     2     3 1
     4    13     4 ar
     5    13    12 ar
     6     4     5 ar
     7    12     9 ar
     8     5     6 ar
     9     9     6 ar
    10     9    10 1
    11    11    10 1
    12     6     7 1
    13     7     8 1
    14     5    14 1
    15     8    15 1
    16     8    16 1
    17     8    17 1
    18    11    18 1
    19    11    19 1
    20    11    20 1
    21    12    21 1
    22    13    22 1
@<TRIPOS>SUBSTRUCTURE
     1 TWO         1 TEMP              0 ****  ****    0 ROOT
