@<TRIPOS>MOLECULE
TWO
   22    22     1     0     0
SMALL
bcc


@<TRIPOS>ATOM
      1 O1         -0.0560   -0.3620    0.0030 o         1 TWO     -0.829300
      2 C7          1.1560   -0.0440    0.1670 c         1 TWO      0.908200
      3 O2          1.7000    0.1300    1.2940 o         1 TWO     -0.829300
      4 C5          2.0170    0.1380   -1.0770 ca        1 TWO     -0.101600
      5 C4          1.4570   -0.0560   -2.3410 ca        1 TWO     -0.164000
      6 C3          2.2410    0.1060   -3.4880 ca        1 TWO      0.066100
      7 O4          1.7730   -0.0900   -4.7820 os        1 TWO     -0.344900
      8 C9          0.3710   -0.2900   -4.8970 c3        1 TWO      0.118700
      9 C2          3.5990    0.4640   -3.3670 ca        1 TWO      0.035100
     10 O3          4.3950    0.7360   -4.4760 os        1 TWO     -0.341900
     11 C8          4.6920   -0.4170   -5.2560 c3        1 TWO      0.120700
     12 C1          4.1570    0.6510   -2.0950 ca        1 TWO     -0.142000
     13 C6          3.3650    0.4940   -0.9620 ca        1 TWO     -0.127000
     14 H2          0.3930   -0.3350   -2.3920 ha        1 TWO      0.161000
     15 H3          0.0710   -1.2530   -4.4170 h1        1 TWO      0.035700
     16 H4         -0.1930    0.5600   -4.4410 h1        1 TWO      0.035700
     17 H5          0.1980   -0.3310   -6.0020 h1        1 TWO      0.035700
     18 H6          5.2720   -1.1580   -4.6530 h1        1 TWO      0.029033
     19 H7          5.3140   -0.0230   -6.0980 h1        1 TWO      0.029033
     20 H8          3.7540   -0.8850   -5.6410 h1        1 TWO      0.029033
     21 H9          5.2150    0.9330   -2.0140 ha        1 TWO      0.122000
     22 H10         3.7800    0.6430    0.0480 ha        1 TWO      0.155000
@<TRIPOS>BOND
     1    1    2 1   
     2    2    3 1   
     3    2    4 1   
     4    4    5 ar  
     5    4   13 ar  
     6    5    6 ar  
     7    5   14 1   
     8    6    7 1   
     9    6    9 ar  
    10    7    8 1   
    11    8   15 1   
    12    8   16 1   
    13    8   17 1   
    14    9   10 1   
    15    9   12 ar  
    16   10   11 1   
    17   11   18 1   
    18   11   19 1   
    19   11   20 1   
    20   12   13 ar  
    21   12   21 1   
    22   13   22 1   
@<TRIPOS>SUBSTRUCTURE
     1 TWO         1 TEMP              0 ****  ****    0 ROOT
