@<TRIPOS>MOLECULE
TWT
   68    67     1     0     0
SMALL
bcc


@<TRIPOS>ATOM
      1 C1          0.0070   -0.0000   -0.0140 c3        1 TWT     -0.092100
      2 C2          1.5140   -0.0000    0.0130 c3        1 TWT     -0.080400
      3 C3          2.0440   -0.0000    1.4310 c3        1 TWT     -0.079400
      4 C4          3.5580   -0.0000    1.4540 c3        1 TWT     -0.079400
      5 C5          4.0870   -0.0000    2.8720 c3        1 TWT     -0.079400
      6 C6          5.6000    0.0000    2.8940 c3        1 TWT     -0.079400
      7 C7          6.1290   -0.0000    4.3130 c3        1 TWT     -0.079400
      8 C8          7.6420    0.0000    4.3350 c3        1 TWT     -0.079400
      9 C9          8.1710    0.0000    5.7530 c3        1 TWT     -0.079400
     10 C10         9.6840    0.0010    5.7750 c3        1 TWT     -0.079400
     11 C11        10.2130    0.0000    7.1940 c3        1 TWT     -0.079400
     12 C12        11.7270    0.0010    7.2160 c3        1 TWT     -0.079400
     13 C13        12.2550    0.0010    8.6340 c3        1 TWT     -0.079400
     14 C14        13.7690    0.0010    8.6560 c3        1 TWT     -0.079400
     15 C15        14.2980    0.0010   10.0750 c3        1 TWT     -0.079400
     16 C16        15.8110    0.0010   10.0970 c3        1 TWT     -0.079400
     17 C17        16.3400    0.0010   11.5150 c3        1 TWT     -0.079400
     18 C18        17.8540    0.0010   11.5380 c3        1 TWT     -0.079400
     19 C19        18.3820    0.0010   12.9560 c3        1 TWT     -0.079400
     20 C20        19.8960    0.0010   12.9780 c3        1 TWT     -0.079400
     21 C21        20.4260    0.0010   14.3960 c3        1 TWT     -0.080400
     22 C22        21.9330    0.0010   14.4240 c3        1 TWT     -0.092100
     23 H1C1       -0.3970    0.9050    0.5010 hc        1 TWT      0.032700
     24 H1C2       -0.3960   -0.9050    0.5010 hc        1 TWT      0.032700
     25 H1C3       -0.3620   -0.0000   -1.0680 hc        1 TWT      0.032700
     26 H2C1        1.9010    0.9020   -0.5300 hc        1 TWT      0.038700
     27 H2C2        1.9010   -0.9020   -0.5300 hc        1 TWT      0.038700
     28 H3C1        1.6600   -0.9030    1.9760 hc        1 TWT      0.039700
     29 H3C2        1.6600    0.9020    1.9760 hc        1 TWT      0.039700
     30 H4C1        3.9420   -0.9030    0.9090 hc        1 TWT      0.039700
     31 H4C2        3.9420    0.9020    0.9090 hc        1 TWT      0.039700
     32 H5C1        3.7020    0.9020    3.4170 hc        1 TWT      0.039700
     33 H5C2        3.7020   -0.9030    3.4170 hc        1 TWT      0.039700
     34 H6C1        5.9840    0.9030    2.3500 hc        1 TWT      0.039700
     35 H6C2        5.9840   -0.9020    2.3500 hc        1 TWT      0.039700
     36 H7C1        5.7450   -0.9030    4.8570 hc        1 TWT      0.039700
     37 H7C2        5.7440    0.9020    4.8570 hc        1 TWT      0.039700
     38 H8C1        8.0260    0.9030    3.7910 hc        1 TWT      0.039700
     39 H8C2        8.0270   -0.9020    3.7900 hc        1 TWT      0.039700
     40 H9C1        7.7870   -0.9030    6.2970 hc        1 TWT      0.039700
     41 H9C2        7.7870    0.9020    6.2980 hc        1 TWT      0.039700
     42 H101       10.0680    0.9030    5.2310 hc        1 TWT      0.039700
     43 H102       10.0690   -0.9020    5.2310 hc        1 TWT      0.039700
     44 H111        9.8290    0.9020    7.7390 hc        1 TWT      0.039700
     45 H112        9.8290   -0.9030    7.7380 hc        1 TWT      0.039700
     46 H121       12.1110   -0.9010    6.6710 hc        1 TWT      0.039700
     47 H122       12.1110    0.9040    6.6720 hc        1 TWT      0.039700
     48 H131       11.8710    0.9030    9.1790 hc        1 TWT      0.039700
     49 H132       11.8720   -0.9020    9.1790 hc        1 TWT      0.039700
     50 H141       14.1530   -0.9010    8.1120 hc        1 TWT      0.039700
     51 H142       14.1530    0.9040    8.1120 hc        1 TWT      0.039700
     52 H151       13.9140   -0.9020   10.6190 hc        1 TWT      0.039700
     53 H152       13.9130    0.9030   10.6200 hc        1 TWT      0.039700
     54 H161       16.1950    0.9040    9.5530 hc        1 TWT      0.039700
     55 H162       16.1960   -0.9010    9.5520 hc        1 TWT      0.039700
     56 H171       15.9560   -0.9020   12.0600 hc        1 TWT      0.039700
     57 H172       15.9560    0.9030   12.0600 hc        1 TWT      0.039700
     58 H181       18.2380   -0.9010   10.9930 hc        1 TWT      0.039700
     59 H182       18.2380    0.9040   10.9930 hc        1 TWT      0.039700
     60 H191       17.9980    0.9040   13.5010 hc        1 TWT      0.039700
     61 H192       17.9980   -0.9010   13.5000 hc        1 TWT      0.039700
     62 H201       20.2800    0.9040   12.4340 hc        1 TWT      0.039700
     63 H202       20.2800   -0.9010   12.4340 hc        1 TWT      0.039700
     64 H211       20.0390    0.9040   14.9400 hc        1 TWT      0.038700
     65 H212       20.0390   -0.9010   14.9400 hc        1 TWT      0.038700
     66 H221       22.3020    0.0010   15.4770 hc        1 TWT      0.032700
     67 H222       22.3360   -0.9040   13.9080 hc        1 TWT      0.032700
     68 H223       22.3360    0.9060   13.9080 hc        1 TWT      0.032700
@<TRIPOS>BOND
     1    1    2 1   
     2    1   23 1   
     3    1   24 1   
     4    1   25 1   
     5    2    3 1   
     6    2   26 1   
     7    2   27 1   
     8    3    4 1   
     9    3   28 1   
    10    3   29 1   
    11    4    5 1   
    12    4   30 1   
    13    4   31 1   
    14    5    6 1   
    15    5   32 1   
    16    5   33 1   
    17    6    7 1   
    18    6   34 1   
    19    6   35 1   
    20    7    8 1   
    21    7   36 1   
    22    7   37 1   
    23    8    9 1   
    24    8   38 1   
    25    8   39 1   
    26    9   10 1   
    27    9   40 1   
    28    9   41 1   
    29   10   11 1   
    30   10   42 1   
    31   10   43 1   
    32   11   12 1   
    33   11   44 1   
    34   11   45 1   
    35   12   13 1   
    36   12   46 1   
    37   12   47 1   
    38   13   14 1   
    39   13   48 1   
    40   13   49 1   
    41   14   15 1   
    42   14   50 1   
    43   14   51 1   
    44   15   16 1   
    45   15   52 1   
    46   15   53 1   
    47   16   17 1   
    48   16   54 1   
    49   16   55 1   
    50   17   18 1   
    51   17   56 1   
    52   17   57 1   
    53   18   19 1   
    54   18   58 1   
    55   18   59 1   
    56   19   20 1   
    57   19   60 1   
    58   19   61 1   
    59   20   21 1   
    60   20   62 1   
    61   20   63 1   
    62   21   22 1   
    63   21   64 1   
    64   21   65 1   
    65   22   66 1   
    66   22   67 1   
    67   22   68 1   
@<TRIPOS>SUBSTRUCTURE
     1 TWT         1 TEMP              0 ****  ****    0 ROOT
