@<TRIPOS>MOLECULE
molecule
   68    67     1     0     0
SMALL
bcc


@<TRIPOS>ATOM
      1 C1           0.0000     0.0000     0.0000 c3         1 TWT      -0.092100
      2 C2           1.5300     0.0000     0.0000 c3         1 TWT      -0.084400
      3 C3           2.0410     0.0000     1.4420 c3         1 TWT      -0.081400
      4 C4           3.5710     0.0000     1.4400 c3         1 TWT      -0.082400
      5 C5           4.0820     0.0000     2.8820 c3         1 TWT      -0.081400
      6 C6           5.6120     0.0000     2.8820 c3         1 TWT      -0.081400
      7 C7           6.1240     0.0000     4.3230 c3         1 TWT      -0.082400
      8 C8           7.6530     0.0000     4.3230 c3         1 TWT      -0.081400
      9 C9           8.1640     0.0000     5.7640 c3         1 TWT      -0.081400
     10 C10          9.6940     0.0010     5.7640 c3         1 TWT      -0.081900
     11 C11         10.2060     0.0000     7.2050 c3         1 TWT      -0.081900
     12 C12         11.7340     0.0010     7.2040 c3         1 TWT      -0.081900
     13 C13         12.2460     0.0000     8.6450 c3         1 TWT      -0.081900
     14 C14         13.7760     0.0010     8.6450 c3         1 TWT      -0.081400
     15 C15         14.2870     0.0010    10.0870 c3         1 TWT      -0.081400
     16 C16         15.8160     0.0010    10.0870 c3         1 TWT      -0.082400
     17 C17         16.3280     0.0010    11.5280 c3         1 TWT      -0.081400
     18 C18         17.8580     0.0010    11.5280 c3         1 TWT      -0.081400
     19 C19         18.3690     0.0010    12.9690 c3         1 TWT      -0.082400
     20 C20         19.8990     0.0010    12.9680 c3         1 TWT      -0.081400
     21 C21         20.4100     0.0010    14.4100 c3         1 TWT      -0.084400
     22 C22         21.9400     0.0010    14.4100 c3         1 TWT      -0.092100
     23 H1C1        -0.3610    -0.8850     0.5110 hc         1 TWT       0.032367
     24 H1C2        -0.3610     0.8850     0.5110 hc         1 TWT       0.032367
     25 H1C3        -0.3610    -0.0000    -1.0210 hc         1 TWT       0.032367
     26 H2C1         1.8910    -0.8840    -0.5110 hc         1 TWT       0.039700
     27 H2C2         1.8910     0.8840    -0.5110 hc         1 TWT       0.039700
     28 H3C1         1.6810    -0.8850     1.9530 hc         1 TWT       0.040700
     29 H3C2         1.6810     0.8840     1.9530 hc         1 TWT       0.040700
     30 H4C1         3.9310     0.8840     0.9290 hc         1 TWT       0.040700
     31 H4C2         3.9310    -0.8840     0.9290 hc         1 TWT       0.040700
     32 H5C1         3.7210     0.8840     3.3930 hc         1 TWT       0.040700
     33 H5C2         3.7210    -0.8840     3.3930 hc         1 TWT       0.040700
     34 H6C1         5.9730    -0.8840     2.3710 hc         1 TWT       0.040700
     35 H6C2         5.9730     0.8840     2.3710 hc         1 TWT       0.040700
     36 H7C1         5.7630     0.8840     4.8340 hc         1 TWT       0.040700
     37 H7C2         5.7630    -0.8840     4.8340 hc         1 TWT       0.040700
     38 H8C1         8.0130    -0.8840     3.8120 hc         1 TWT       0.040700
     39 H8C2         8.0130     0.8840     3.8120 hc         1 TWT       0.040700
     40 H9C1         7.8040    -0.8850     6.2750 hc         1 TWT       0.040700
     41 H9C2         7.8030     0.8840     6.2760 hc         1 TWT       0.040700
     42 H101        10.0550    -0.8830     5.2530 hc         1 TWT       0.040700
     43 H102        10.0540     0.8860     5.2540 hc         1 TWT       0.040700
     44 H111         9.8450     0.8840     7.7170 hc         1 TWT       0.040700
     45 H112         9.8460    -0.8850     7.7160 hc         1 TWT       0.040700
     46 H121        12.0950    -0.8830     6.6920 hc         1 TWT       0.040700
     47 H122        12.0940     0.8860     6.6940 hc         1 TWT       0.040700
     48 H131        11.8860    -0.8850     9.1560 hc         1 TWT       0.040700
     49 H132        11.8850     0.8840     9.1570 hc         1 TWT       0.040700
     50 H141        14.1360     0.8860     8.1350 hc         1 TWT       0.040700
     51 H142        14.1370    -0.8830     8.1340 hc         1 TWT       0.040700
     52 H151        13.9260    -0.8830    10.5980 hc         1 TWT       0.040700
     53 H152        13.9260     0.8850    10.5980 hc         1 TWT       0.040700
     54 H161        16.1770     0.8850     9.5750 hc         1 TWT       0.040700
     55 H162        16.1770    -0.8830     9.5750 hc         1 TWT       0.040700
     56 H171        15.9670     0.8850    12.0390 hc         1 TWT       0.040700
     57 H172        15.9670    -0.8830    12.0390 hc         1 TWT       0.040700
     58 H181        18.2190    -0.8830    11.0170 hc         1 TWT       0.040700
     59 H182        18.2190     0.8850    11.0170 hc         1 TWT       0.040700
     60 H191        18.0090     0.8860    13.4800 hc         1 TWT       0.040700
     61 H192        18.0090    -0.8830    13.4800 hc         1 TWT       0.040700
     62 H201        20.2590    -0.8830    12.4570 hc         1 TWT       0.040700
     63 H202        20.2590     0.8860    12.4570 hc         1 TWT       0.040700
     64 H211        20.0490     0.8850    14.9210 hc         1 TWT       0.039700
     65 H212        20.0490    -0.8830    14.9210 hc         1 TWT       0.039700
     66 H221        22.3010     0.8860    13.8990 hc         1 TWT       0.032367
     67 H222        22.3010    -0.8830    13.8990 hc         1 TWT       0.032367
     68 H223        22.3010     0.0010    15.4310 hc         1 TWT       0.032367
@<TRIPOS>BOND
     1     1     2 1
     2     1    23 1
     3     1    24 1
     4     1    25 1
     5     2     3 1
     6     2    26 1
     7     2    27 1
     8     3     4 1
     9     3    28 1
    10     3    29 1
    11     4     5 1
    12     4    30 1
    13     4    31 1
    14     5     6 1
    15     5    32 1
    16     5    33 1
    17     6     7 1
    18     6    34 1
    19     6    35 1
    20     7     8 1
    21     7    36 1
    22     7    37 1
    23     8     9 1
    24     8    38 1
    25     8    39 1
    26     9    10 1
    27     9    40 1
    28     9    41 1
    29    10    11 1
    30    10    42 1
    31    10    43 1
    32    11    12 1
    33    11    44 1
    34    11    45 1
    35    12    13 1
    36    12    46 1
    37    12    47 1
    38    13    14 1
    39    13    48 1
    40    13    49 1
    41    14    15 1
    42    14    50 1
    43    14    51 1
    44    15    16 1
    45    15    52 1
    46    15    53 1
    47    16    17 1
    48    16    54 1
    49    16    55 1
    50    17    18 1
    51    17    56 1
    52    17    57 1
    53    18    19 1
    54    18    58 1
    55    18    59 1
    56    19    20 1
    57    19    60 1
    58    19    61 1
    59    20    21 1
    60    20    62 1
    61    20    63 1
    62    21    22 1
    63    21    64 1
    64    21    65 1
    65    22    66 1
    66    22    67 1
    67    22    68 1
@<TRIPOS>SUBSTRUCTURE
     1 TWT         1 TEMP              0 ****  ****    0 ROOT
