@<TRIPOS>MOLECULE
molecule
   44    46     1     0     0
SMALL
bcc


@<TRIPOS>ATOM
      1 C1           0.0000     0.0000     0.0000 ca         1 TX1       0.154100
      2 C2           1.3880     0.0000     0.0000 ca         1 TX1      -0.025900
      3 C3           2.0780     0.0000     1.1980 ca         1 TX1      -0.062000
      4 C4           1.3850     0.0000     2.3960 ca         1 TX1      -0.022900
      5 C5           0.0020     0.0010     2.3970 ca         1 TX1      -0.066000
      6 C6          -0.6920     0.0010     1.2020 ca         1 TX1      -0.113300
      7 C7          -2.1990     0.0010     1.2050 c3         1 TX1       0.169300
      8 N8          -2.6870    -1.3610     0.9680 ns         1 TX1      -0.576900
      9 C9          -4.0120    -1.6030     0.9280 c          1 TX1       0.665700
     10 C10         -4.5050    -2.9760     0.6870 ca         1 TX1      -0.081600
     11 C11         -4.0860    -3.6840    -0.4410 ca         1 TX1      -0.115000
     12 C12         -4.5500    -4.9650    -0.6580 ca         1 TX1      -0.095000
     13 C13         -5.4290    -5.5490     0.2370 ca         1 TX1      -0.121000
     14 C14         -5.8480    -4.8510     1.3560 ca         1 TX1      -0.074000
     15 C15         -5.3870    -3.5720     1.5900 ca         1 TX1      -0.118200
     16 N16         -5.8310    -2.8320     2.7920 no         1 TX1       0.290200
     17 O17         -4.8010    -0.6930     1.0900 o          1 TX1      -0.557100
     18 O18         -6.6940    -3.3010     3.5120 o          1 TX1      -0.189000
     19 O19         -5.3350    -1.7520     3.0610 o          1 TX1      -0.189000
     20 O20         -0.6810     0.0060    -1.1770 os         1 TX1      -0.342200
     21 C21         -0.9820     1.2080    -1.7040 c          1 TX1       0.644700
     22 O22         -0.6460     2.2240    -1.1290 o          1 TX1      -0.499000
     23 Br23         2.3350    -0.0020    -1.6380 br         1 TX1      -0.061100
     24 Br24         2.3320    -0.0010     4.0320 br         1 TX1      -0.070100
     25 C25         -1.7200     1.2910    -2.9800 ca         1 TX1      -0.128600
     26 C26         -2.1080     0.1250    -3.6440 ca         1 TX1      -0.069000
     27 C27         -2.7960     0.2100    -4.8350 ca         1 TX1      -0.147000
     28 C28         -3.1040     1.4470    -5.3750 ca         1 TX1      -0.084000
     29 C29         -2.7240     2.6070    -4.7240 ca         1 TX1      -0.137000
     30 C30         -2.0390     2.5380    -3.5270 ca         1 TX1       0.084400
     31 Cl31        -1.5700     3.9940    -2.7070 cl         1 TX1      -0.053400
     32 H3           3.1610    -0.0000     1.1990 ha         1 TX1       0.164000
     33 H5          -0.5380     0.0010     3.3360 ha         1 TX1       0.161000
     34 H7          -2.5610     0.6560     0.4230 h1         1 TX1       0.072200
     35 H7A         -2.5580     0.3510     2.1650 h1         1 TX1       0.072200
     36 HN8         -2.0370    -2.1140     0.8620 hn         1 TX1       0.318500
     37 H11         -3.3980    -3.2290    -1.1430 ha         1 TX1       0.151000
     38 H12         -4.2250    -5.5150    -1.5330 ha         1 TX1       0.145000
     39 H13         -5.7920    -6.5540     0.0590 ha         1 TX1       0.150000
     40 H14         -6.5340    -5.3140     2.0550 ha         1 TX1       0.171000
     41 H26         -1.8680    -0.8440    -3.2230 ha         1 TX1       0.150000
     42 H27         -3.0970    -0.6940    -5.3500 ha         1 TX1       0.139000
     43 H28         -3.6430     1.5060    -6.3130 ha         1 TX1       0.142000
     44 H29         -2.9700     3.5710    -5.1510 ha         1 TX1       0.153000
@<TRIPOS>BOND
     1     2     1 ar
     2    20     1 1
     3     1     6 ar
     4    23     2 1
     5     2     3 ar
     6     3     4 ar
     7     3    32 1
     8     4    24 1
     9     4     5 ar
    10     6     5 ar
    11     5    33 1
    12     6     7 1
    13     7     8 1
    14     7    34 1
    15     7    35 1
    16     8     9 1
    17     8    36 1
    18    17     9 2
    19     9    10 1
    20    10    15 ar
    21    10    11 ar
    22    11    12 ar
    23    11    37 1
    24    12    13 ar
    25    12    38 1
    26    14    13 ar
    27    13    39 1
    28    15    14 ar
    29    14    40 1
    30    16    15 1
    31    19    16 1
    32    16    18 1
    33    21    20 1
    34    22    21 2
    35    25    21 1
    36    30    25 ar
    37    25    26 ar
    38    27    26 ar
    39    26    41 1
    40    28    27 ar
    41    27    42 1
    42    29    28 ar
    43    28    43 1
    44    30    29 ar
    45    29    44 1
    46    31    30 1
@<TRIPOS>SUBSTRUCTURE
     1 TX1         1 TEMP              0 ****  ****    0 ROOT
