@<TRIPOS>MOLECULE
TX3
   45    47     1     0     0
SMALL
bcc


@<TRIPOS>ATOM
      1 C1           0.0000     0.0000     0.0000 ca         1 TX3       0.163100
      2 C2           1.3880     0.0000     0.0000 ca         1 TX3       0.013100
      3 C3           2.0780     0.0000     1.1980 ca         1 TX3      -0.045000
      4 C4           1.3850     0.0000     2.3960 ca         1 TX3       0.024100
      5 C5           0.0020     0.0000     2.3970 ca         1 TX3      -0.046000
      6 C6          -0.6910     0.0060     1.2030 ca         1 TX3      -0.126300
      7 C7          -2.1980     0.0080     1.2050 c3         1 TX3       0.115300
      8 N8          -2.6870    -1.3510     0.9600 ns         1 TX3      -0.215900
      9 C9          -4.0130    -1.5930     0.9180 c          1 TX3       0.596700
     10 O10         -4.8020    -0.6830     1.0840 o          1 TX3      -0.645100
     11 C11         -4.5070    -2.9630     0.6710 ca         1 TX3      -0.156600
     12 C12         -3.6030    -4.0110     0.4800 ca         1 TX3      -0.074000
     13 C13         -4.0720    -5.2870     0.2490 ca         1 TX3      -0.114000
     14 C14         -5.4330    -5.5330     0.2080 ca         1 TX3      -0.068000
     15 C15         -6.3350    -4.5010     0.3960 ca         1 TX3      -0.117000
     16 C16         -5.8810    -3.2190     0.6330 ca         1 TX3       0.010400
     17 Cl17        -7.0130    -1.9230     0.8690 cl         1 TX3       0.036600
     18 Br18         2.3360    -0.0010    -1.6370 br         1 TX3      -0.089100
     19 Br19         2.3320    -0.0010     4.0330 br         1 TX3      -0.106100
     20 O20         -0.6800     0.0000    -1.1770 os         1 TX3      -0.310200
     21 C21         -0.9870    -1.2000    -1.7070 c          1 TX3       0.728700
     22 O22         -0.6560    -2.2190    -1.1330 o          1 TX3      -0.591000
     23 C23         -1.7260    -1.2770    -2.9830 ca         1 TX3      -0.162600
     24 C24         -2.2200    -0.1140    -3.5780 ca         1 TX3      -0.039000
     25 C25         -2.9080    -0.1950    -4.7710 ca         1 TX3      -0.126000
     26 C26         -3.1090    -1.4220    -5.3780 ca         1 TX3      -0.055000
     27 C27         -2.6220    -2.5770    -4.7930 ca         1 TX3      -0.124000
     28 C28         -1.9260    -2.5110    -3.6040 ca         1 TX3      -0.008300
     29 C29         -1.3910    -3.7700    -2.9720 c3         1 TX3       0.042200
     30 H3           3.1620     0.0000     1.1980 ha         1 TX3       0.132000
     31 H5          -0.5380     0.0030     3.3370 ha         1 TX3       0.127000
     32 H7          -2.5580     0.3530     2.1660 h1         1 TX3       0.036200
     33 H7A         -2.5600     0.6680     0.4250 h1         1 TX3       0.036200
     34 HN8         -2.0390    -2.1100     0.8870 hn         1 TX3       0.200500
     35 H12         -2.5370    -3.8210     0.5120 ha         1 TX3       0.116000
     36 H13         -3.3720    -6.1010     0.1010 ha         1 TX3       0.108000
     37 H14         -5.7950    -6.5370     0.0250 ha         1 TX3       0.104000
     38 H15         -7.3990    -4.7000     0.3650 ha         1 TX3       0.117000
     39 H24         -2.0640     0.8470    -3.1050 ha         1 TX3       0.117000
     40 H25         -3.2930     0.7060    -5.2340 ha         1 TX3       0.110000
     41 H26         -3.6530    -1.4780    -6.3130 ha         1 TX3       0.103000
     42 H27         -2.7800    -3.5340    -5.2740 ha         1 TX3       0.113000
     43 H29         -1.6250    -4.6190    -3.6020 hc         1 TX3       0.022367
     44 H29A        -1.8460    -3.9070    -1.9980 hc         1 TX3       0.022367
     45 H29B        -0.3160    -3.6890    -2.8600 hc         1 TX3       0.022367
@<TRIPOS>BOND
     1     1     2 ar  
     2     1     6 ar  
     3     1    20 1   
     4     2     3 ar  
     5     2    18 1   
     6     3     4 ar  
     7     3    30 1   
     8     4     5 ar  
     9     4    19 1   
    10     5     6 ar  
    11     5    31 1   
    12     6     7 1   
    13     7     8 1   
    14     7    32 1   
    15     7    33 1   
    16     8     9 1   
    17     8    34 1   
    18     9    10 2   
    19     9    11 1   
    20    11    12 ar  
    21    11    16 ar  
    22    12    13 ar  
    23    12    35 1   
    24    13    14 ar  
    25    13    36 1   
    26    14    15 ar  
    27    14    37 1   
    28    15    16 ar  
    29    15    38 1   
    30    16    17 1   
    31    20    21 1   
    32    21    22 2   
    33    21    23 1   
    34    23    24 ar  
    35    23    28 ar  
    36    24    25 ar  
    37    24    39 1   
    38    25    26 ar  
    39    25    40 1   
    40    26    27 ar  
    41    26    41 1   
    42    27    28 ar  
    43    27    42 1   
    44    28    29 1   
    45    29    43 1   
    46    29    44 1   
    47    29    45 1   
@<TRIPOS>SUBSTRUCTURE
     1 TX3         1 TEMP              0 ****  ****    0 ROOT
