@<TRIPOS>MOLECULE
TX4
   24    23     1     0     0
SMALL
bcc


@<TRIPOS>ATOM
      1 O7           0.0000     0.0000     0.0000 o          1 TX4      -0.764500
      2 P            1.4800     0.0000     0.0000 p5         1 TX4       0.667900
      3 O5           2.0170     0.0000     1.5170 o          1 TX4      -0.764500
      4 O6           2.0160     1.3140    -0.7600 o          1 TX4      -0.764500
      5 O4           2.0160    -1.3150    -0.7600 os         1 TX4      -0.461200
      6 C4           1.4130    -1.3180    -2.0560 c3         1 TX4       0.208400
      7 C3           1.8840    -2.5500    -2.8330 c3         1 TX4       0.152100
      8 O3           3.2910    -2.4530    -3.0700 oh         1 TX4      -0.576800
      9 C2           1.1450    -2.6210    -4.1700 c3         1 TX4       0.194100
     10 O2           1.3260    -1.3940    -4.8810 oh         1 TX4      -0.550800
     11 C1           1.7040    -3.7780    -5.0010 c3         1 TX4       0.315300
     12 O1           3.0970    -3.5660    -5.2370 oh         1 TX4      -0.542800
     13 N            0.9940    -3.8460    -6.2850 n7         1 TX4      -0.399700
     14 ON           0.9960    -5.2520    -6.6920 oh         1 TX4      -0.506300
     15 H41          1.7010    -0.4210    -2.5900 h1         1 TX4       0.013200
     16 H42          0.3350    -1.3470    -1.9520 h1         1 TX4       0.013200
     17 H3           1.6750    -3.4430    -2.2570 h1         1 TX4      -0.018300
     18 HO3          3.7580    -2.8460    -2.3520 ho         1 TX4       0.379000
     19 H2           0.0890    -2.7820    -3.9910 h1         1 TX4       0.008700
     20 HO2          0.4860    -1.0580    -5.1490 ho         1 TX4       0.368000
     21 H1           1.5670    -4.7080    -4.4630 h2         1 TX4       0.017700
     22 HO1          3.5010    -4.3800    -5.4890 ho         1 TX4       0.355000
     23 HN           1.4830    -3.3010    -6.9670 hn         1 TX4       0.266800
     24 HON          0.2930    -5.4040    -7.3020 ho         1 TX4       0.390000
@<TRIPOS>BOND
     1     1     2 1   
     2     2     3 1   
     3     2     4 1   
     4     2     5 1   
     5     5     6 1   
     6     6     7 1   
     7     6    15 1   
     8     6    16 1   
     9     7     8 1   
    10     7     9 1   
    11     7    17 1   
    12     8    18 1   
    13     9    10 1   
    14     9    11 1   
    15     9    19 1   
    16    10    20 1   
    17    11    12 1   
    18    11    13 1   
    19    11    21 1   
    20    12    22 1   
    21    13    14 1   
    22    13    23 1   
    23    14    24 1   
@<TRIPOS>SUBSTRUCTURE
     1 TX4         1 TEMP              0 ****  ****    0 ROOT
