@<TRIPOS>MOLECULE
TX5
   70    72     1     0     0
SMALL
bcc


@<TRIPOS>ATOM
      1 O2         -0.1160   -0.5670   -0.2110 oh        1 TX5     -0.599800
      2 C1          3.1240    1.2330   -0.9020 c3        1 TX5      0.186300
      3 C2          1.6180    0.9890   -0.8930 c3        1 TX5     -0.146400
      4 C3          1.2900   -0.3730   -0.2940 c3        1 TX5      0.146100
      5 C4          1.8250   -0.4800    1.1320 c3        1 TX5     -0.036200
      6 C5          3.2910   -0.2050    1.1720 ce        1 TX5     -0.070200
      7 C6          4.1160   -1.0260    1.8550 cf        1 TX5     -0.111000
      8 C7          5.5510   -0.8810    1.9360 cf        1 TX5     -0.150000
      9 C8          6.3380   -1.3930    2.9030 c2        1 TX5     -0.087400
     10 C9          7.8180   -1.2410    2.8100 c3        1 TX5     -0.042200
     11 C10         3.7340    0.9900    0.4560 ce        1 TX5     -0.071200
     12 C11         8.4220   -0.8180    4.1320 c3        1 TX5     -0.073400
     13 C12         8.0360   -1.7850    5.2270 c3        1 TX5     -0.070400
     14 C13         6.5200   -1.8990    5.4200 c3        1 TX5     -0.036000
     15 C14         5.8020   -2.1460    4.0730 c3        1 TX5     -0.027500
     16 C15         5.8520   -3.6600    3.8570 c3        1 TX5     -0.072400
     17 C16         5.9390   -4.2920    5.2380 c3        1 TX5     -0.079400
     18 C17         6.2550   -3.1870    6.2500 c3        1 TX5     -0.057700
     19 C18         6.0030   -0.6300    6.0680 c3        1 TX5     -0.087100
     20 C19         4.6190    1.8590    0.9610 c2        1 TX5     -0.191000
     21 C20         5.2180   -3.0780    7.3670 c3        1 TX5     -0.055700
     22 C21         5.3780   -4.2400    8.3310 c3        1 TX5     -0.094100
     23 C22         3.7750   -3.0250    6.8630 c3        1 TX5     -0.001300
     24 O1          3.7880    0.3730   -1.8250 oh        1 TX5     -0.588800
     25 C23         2.9060   -2.3340    7.7700 c1        1 TX5     -0.106100
     26 C24         2.1620   -1.7600    8.5100 c1        1 TX5     -0.137100
     27 C25         1.2560   -1.0650    9.4020 c3        1 TX5      0.242900
     28 C27         0.2230   -2.0370    9.9790 c3        1 TX5     -0.120100
     29 C26         0.5480    0.0740    8.6650 c3        1 TX5     -0.120100
     30 O3          2.0510   -0.5240   10.4690 oh        1 TX5     -0.589800
     31 HO2        -0.4560   -0.5170   -1.1110 ho        1 TX5      0.398000
     32 H1          3.3130    2.3020   -1.2170 h1        1 TX5      0.034700
     33 H21         1.2210    1.0470   -1.9390 hc        1 TX5      0.052700
     34 H22         1.1170    1.7900   -0.2910 hc        1 TX5      0.052700
     35 H3          1.7460   -1.1810   -0.9350 h1        1 TX5      0.048700
     36 H41         1.5920   -1.5020    1.5300 hc        1 TX5      0.062700
     37 H42         1.2870    0.2630    1.7810 hc        1 TX5      0.062700
     38 H6          3.6880   -1.9050    2.3710 ha        1 TX5      0.125000
     39 H7          6.0120   -0.3140    1.1040 ha        1 TX5      0.134000
     40 H91         8.0920   -0.4940    2.0180 hc        1 TX5      0.047700
     41 H92         8.2550   -2.2310    2.5000 hc        1 TX5      0.047700
     42 H111        8.0830    0.2180    4.3930 hc        1 TX5      0.041700
     43 H112        9.5400   -0.7900    4.0380 hc        1 TX5      0.041700
     44 H121        8.4460   -2.8000    4.9710 hc        1 TX5      0.040700
     45 H122        8.5040   -1.4640    6.1950 hc        1 TX5      0.040700
     46 H14         4.7240   -1.8450    4.2190 hc        1 TX5      0.054700
     47 H151        4.9450   -4.0080    3.3040 hc        1 TX5      0.044200
     48 H152        6.7480   -3.9340    3.2450 hc        1 TX5      0.044200
     49 H161        4.9810   -4.8110    5.4920 hc        1 TX5      0.041700
     50 H162        6.7450   -5.0690    5.2580 hc        1 TX5      0.041700
     51 H17         7.2200   -3.4530    6.7740 hc        1 TX5      0.049700
     52 H181        6.5320   -0.4390    7.0330 hc        1 TX5      0.039033
     53 H182        6.1780    0.2400    5.3900 hc        1 TX5      0.039033
     54 H183        4.9060   -0.6960    6.2690 hc        1 TX5      0.039033
     55 H191        4.9460    2.7510    0.4120 ha        1 TX5      0.120500
     56 H192        5.0620    1.7280    1.9580 ha        1 TX5      0.120500
     57 H20         5.4280   -2.1310    7.9430 hc        1 TX5      0.065700
     58 H211        5.2850   -5.2150    7.7940 hc        1 TX5      0.036367
     59 H212        4.5920   -4.1910    9.1220 hc        1 TX5      0.036367
     60 H213        6.3800   -4.2030    8.8230 hc        1 TX5      0.036367
     61 H221        3.7420   -2.5140    5.8600 hc        1 TX5      0.062200
     62 H222        3.3850   -4.0720    6.7130 hc        1 TX5      0.062200
     63 HO1         3.3480    0.4910   -2.6750 ho        1 TX5      0.396000
     64 H271        0.7360   -2.8250   10.5790 hc        1 TX5      0.047200
     65 H272       -0.3490   -2.5190    9.1530 hc        1 TX5      0.047200
     66 H273       -0.4870   -1.4850   10.6400 hc        1 TX5      0.047200
     67 H261       -0.1690    0.5820    9.3520 hc        1 TX5      0.047200
     68 H262       -0.0110   -0.3280    7.7880 hc        1 TX5      0.047200
     69 H263        1.2980    0.8210    8.3100 hc        1 TX5      0.047200
     70 HO3         1.4380   -0.0630   11.0520 ho        1 TX5      0.399000
@<TRIPOS>BOND
     1    1    4 1   
     2    1   31 1   
     3    2    3 1   
     4    2   11 1   
     5    2   24 1   
     6    2   32 1   
     7    3    4 1   
     8    3   33 1   
     9    3   34 1   
    10    4    5 1   
    11    4   35 1   
    12    5    6 1   
    13    5   36 1   
    14    5   37 1   
    15    6    7 2   
    16    6   11 1   
    17    7    8 1   
    18    7   38 1   
    19    8    9 2   
    20    8   39 1   
    21    9   10 1   
    22    9   15 1   
    23   10   12 1   
    24   10   40 1   
    25   10   41 1   
    26   11   20 2   
    27   12   13 1   
    28   12   42 1   
    29   12   43 1   
    30   13   14 1   
    31   13   44 1   
    32   13   45 1   
    33   14   15 1   
    34   14   18 1   
    35   14   19 1   
    36   15   16 1   
    37   15   46 1   
    38   16   17 1   
    39   16   47 1   
    40   16   48 1   
    41   17   18 1   
    42   17   49 1   
    43   17   50 1   
    44   18   21 1   
    45   18   51 1   
    46   19   52 1   
    47   19   53 1   
    48   19   54 1   
    49   20   55 1   
    50   20   56 1   
    51   21   22 1   
    52   21   23 1   
    53   21   57 1   
    54   22   58 1   
    55   22   59 1   
    56   22   60 1   
    57   23   25 1   
    58   23   61 1   
    59   23   62 1   
    60   24   63 1   
    61   25   26 3   
    62   26   27 1   
    63   27   28 1   
    64   27   29 1   
    65   27   30 1   
    66   28   64 1   
    67   28   65 1   
    68   28   66 1   
    69   29   67 1   
    70   29   68 1   
    71   29   69 1   
    72   30   70 1   
@<TRIPOS>SUBSTRUCTURE
     1 TX5         1 TEMP              0 ****  ****    0 ROOT
