@<TRIPOS>MOLECULE
molecule
   70    72     1     0     0
SMALL
bcc


@<TRIPOS>ATOM
      1 O2           0.0000     0.0000     0.0000 oh         1 TX5      -0.611800
      2 C1           3.4600     1.1790    -0.8710 c3         1 TX5       0.189300
      3 C2           1.9360     1.2460    -0.7270 c3         1 TX5      -0.098400
      4 C3           1.4290     0.0000     0.0000 c3         1 TX5       0.152100
      5 C4           1.9380     0.0000     1.4450 c3         1 TX5      -0.046200
      6 C5           3.4520     0.0570     1.4180 ce         1 TX5      -0.078200
      7 C6           4.2050    -0.7600     2.1840 cf         1 TX5      -0.121000
      8 C7           5.6650    -0.6740     2.1300 cf         1 TX5      -0.154000
      9 C8           6.4070    -1.4030     2.9640 c2         1 TX5      -0.101400
     10 C9           7.9080    -1.4570     2.7910 c3         1 TX5      -0.037200
     11 C10          4.0650     1.0550     0.5180 ce         1 TX5      -0.089200
     12 C11          8.5400    -1.1580     4.1570 c3         1 TX5      -0.079400
     13 C12          8.0260    -2.1830     5.1640 c3         1 TX5      -0.068400
     14 C13          6.5130    -2.0190     5.4080 c3         1 TX5      -0.053000
     15 C14          5.7530    -2.1670     4.0730 c3         1 TX5      -0.036500
     16 C15          5.7900    -3.6850     3.8090 c3         1 TX5      -0.074400
     17 C16          5.5890    -4.3060     5.2100 c3         1 TX5      -0.086400
     18 C17          6.0290    -3.2400     6.2300 c3         1 TX5      -0.065700
     19 C18          6.2000    -0.7030     6.1220 c3         1 TX5      -0.084100
     20 C19          5.0990     1.8050     0.8980 c2         1 TX5      -0.205000
     21 C20          4.8480    -2.8430     7.1170 c3         1 TX5      -0.065700
     22 C21          4.4450    -4.0310     7.9910 c3         1 TX5      -0.086100
     23 C22          3.6660    -2.4320     6.2370 c3         1 TX5       0.004700
     24 O1           3.8200     0.0440    -1.6600 oh         1 TX5      -0.598800
     25 C23          2.5610    -1.9610     7.0880 c1         1 TX5      -0.180100
     26 C24          1.6680    -1.5980     7.7580 c1         1 TX5      -0.165100
     27 C25          0.1050    -1.1960     8.8010 c3         1 TX5       0.296900
     28 C27          0.8800    -0.1260    10.0720 c3         1 TX5      -0.136100
     29 C26         -0.7440    -0.3690     7.9380 c3         1 TX5      -0.136100
     30 O3          -0.4540    -2.2140     9.3540 oh         1 TX5      -0.551800
     31 HO2         -0.3140    -0.8050    -0.3770 ho         1 TX5       0.401000
     32 H1           3.8190     2.0850    -1.3430 h1         1 TX5       0.036700
     33 H21          1.4850     1.2960    -1.7100 hc         1 TX5       0.056700
     34 H22          1.6680     2.1270    -0.1570 hc         1 TX5       0.056700
     35 H3           1.7940    -0.8850    -0.5080 h1         1 TX5       0.053700
     36 H41          1.6170    -0.9070     1.9430 hc         1 TX5       0.057700
     37 H42          1.5500     0.8670     1.9670 hc         1 TX5       0.057700
     38 H6           3.7280    -1.4800     2.8380 ha         1 TX5       0.135000
     39 H7           6.1410    -0.1220     1.3300 ha         1 TX5       0.139000
     40 H91          8.2210    -0.7100     2.0710 hc         1 TX5       0.048700
     41 H92          8.2040    -2.4440     2.4580 hc         1 TX5       0.048700
     42 H111         9.6180    -1.2320     4.0820 hc         1 TX5       0.043200
     43 H112         8.2590    -0.1620     4.4760 hc         1 TX5       0.043200
     44 H121         8.5520    -2.0490     6.1020 hc         1 TX5       0.042200
     45 H122         8.2170    -3.1790     4.7840 hc         1 TX5       0.042200
     46 H14          4.7270    -1.8390     4.1930 hc         1 TX5       0.070700
     47 H151         6.7510    -3.9750     3.4000 hc         1 TX5       0.047200
     48 H152         4.9830    -3.9750     3.1460 hc         1 TX5       0.047200
     49 H161         4.5440    -4.5510     5.3580 hc         1 TX5       0.046200
     50 H162         6.2020    -5.1920     5.3130 hc         1 TX5       0.046200
     51 H17          6.8420    -3.6230     6.8360 hc         1 TX5       0.055700
     52 H181         6.6590     0.1180     5.5850 hc         1 TX5       0.040033
     53 H182         6.5910    -0.7380     7.1320 hc         1 TX5       0.040033
     54 H183         5.1270    -0.5560     6.1560 hc         1 TX5       0.040033
     55 H191         5.5120     1.6940     1.8940 ha         1 TX5       0.122000
     56 H192         5.5280     2.5250     0.2110 ha         1 TX5       0.122000
     57 H20          5.1350    -2.0100     7.7480 hc         1 TX5       0.061700
     58 H211         5.3190    -4.6320     8.2100 hc         1 TX5       0.035367
     59 H212         4.0150    -3.6690     8.9170 hc         1 TX5       0.035367
     60 H213         3.7140    -4.6350     7.4660 hc         1 TX5       0.035367
     61 H221         3.3350    -3.2840     5.6550 hc         1 TX5       0.062200
     62 H222         3.9720    -1.6360     5.5690 hc         1 TX5       0.062200
     63 HO1          4.2030     0.3330    -2.4710 ho         1 TX5       0.401000
     64 H271         1.5750     0.5550     9.5950 hc         1 TX5       0.048200
     65 H272         1.4100    -0.7410    10.7880 hc         1 TX5       0.048200
     66 H273         0.1110     0.4420    10.5830 hc         1 TX5       0.048200
     67 H261        -0.1480     0.4180     7.4920 hc         1 TX5       0.048200
     68 H262        -1.1730    -0.9840     7.1570 hc         1 TX5       0.048200
     69 H263        -1.5390     0.0720     8.5280 hc         1 TX5       0.048200
     70 HO3         -1.2680    -1.9490     9.7510 ho         1 TX5       0.445000
@<TRIPOS>BOND
     1     1     4 1
     2     1    31 1
     3     2     3 1
     4     2    11 1
     5     2    24 1
     6     2    32 1
     7     3     4 1
     8     3    33 1
     9     3    34 1
    10     4     5 1
    11     4    35 1
    12     5     6 1
    13     5    36 1
    14     5    37 1
    15     6     7 2
    16     6    11 1
    17     7     8 1
    18     7    38 1
    19     8     9 2
    20     8    39 1
    21     9    10 1
    22     9    15 1
    23    10    12 1
    24    10    40 1
    25    10    41 1
    26    11    20 2
    27    12    13 1
    28    12    42 1
    29    12    43 1
    30    13    14 1
    31    13    44 1
    32    13    45 1
    33    14    15 1
    34    14    18 1
    35    14    19 1
    36    15    16 1
    37    15    46 1
    38    16    17 1
    39    16    47 1
    40    16    48 1
    41    17    18 1
    42    17    49 1
    43    17    50 1
    44    18    21 1
    45    18    51 1
    46    19    52 1
    47    19    53 1
    48    19    54 1
    49    20    55 1
    50    20    56 1
    51    21    22 1
    52    21    23 1
    53    21    57 1
    54    22    58 1
    55    22    59 1
    56    22    60 1
    57    23    25 1
    58    23    61 1
    59    23    62 1
    60    24    63 1
    61    25    26 3
    62    26    27 1
    63    27    28 1
    64    27    29 1
    65    27    30 1
    66    28    64 1
    67    28    65 1
    68    28    66 1
    69    29    67 1
    70    29    68 1
    71    29    69 1
    72    30    70 1
@<TRIPOS>SUBSTRUCTURE
     1 TX5         1 TEMP              0 ****  ****    0 ROOT
