@<TRIPOS>MOLECULE
TX6
   43    45     1     0     0
SMALL
bcc


@<TRIPOS>ATOM
      1 N16         -1.1980     0.6820    -2.1670 n1         1 TX6      -0.388800
      2 C15         -0.6770     0.3740    -1.2050 cg         1 TX6       0.202500
      3 C2           0.0000     0.0000     0.0000 ce         1 TX6      -0.033900
      4 C1           1.5020     0.0000     0.0000 c3         1 TX6       0.058800
      5 C10          2.0200     0.0000     1.4410 c3         1 TX6      -0.106300
      6 C19          1.6970     1.3450     2.0960 c3         1 TX6      -0.011100
      7 C9           3.5080    -0.2080     1.4520 ca         1 TX6       0.458600
      8 N11          4.2490     0.4470     0.5610 nb         1 TX6      -0.656000
      9 C12          5.5570     0.3090     0.5260 ca         1 TX6       0.635300
     10 C20          6.3480     1.0730    -0.5030 c3         1 TX6      -0.033400
     11 N13          6.1920    -0.4800     1.3690 nb         1 TX6      -0.704000
     12 C14          5.5220    -1.1690     2.2830 ca         1 TX6       0.657600
     13 O21          6.1780    -1.9810     3.1470 os         1 TX6      -0.424100
     14 C22          7.6000    -2.0530     3.0180 c3         1 TX6       0.254700
     15 C8           4.1310    -1.0450     2.3460 ca         1 TX6      -0.345900
     16 C7           3.3820    -1.8360     3.3820 c3         1 TX6       0.056900
     17 C6           1.9770    -1.2670     3.5790 c3         1 TX6      -0.039400
     18 C5           1.3150    -1.1220     2.2070 c3         1 TX6      -0.041700
     19 C4          -0.1560    -0.7330     2.3830 c3         1 TX6      -0.019500
     20 C18         -0.9360    -1.9290     2.9350 c3         1 TX6       0.005900
     21 C3          -0.7370    -0.3230     1.0600 c2         1 TX6       0.111900
     22 O17         -2.0800    -0.2850     0.9370 oh         1 TX6      -0.496100
     23 H2           1.8490     0.8990    -0.4950 hc         1 TX6       0.041700
     24 H3           1.8490    -0.8990    -0.4950 hc         1 TX6       0.041700
     25 H4           0.6250     1.4950     2.1040 hc         1 TX6       0.017367
     26 H5           2.0710     1.3500     3.1130 hc         1 TX6       0.017367
     27 H6           2.1690     2.1430     1.5350 hc         1 TX6       0.017367
     28 H7           7.3600     1.2190    -0.1450 hc         1 TX6       0.019700
     29 H8           5.8830     2.0370    -0.6740 hc         1 TX6       0.019700
     30 H9           6.3700     0.5130    -1.4300 hc         1 TX6       0.019700
     31 H10          8.0210    -1.0590     3.1090 h1         1 TX6       0.003033
     32 H11          8.0010    -2.6870     3.7990 h1         1 TX6       0.003033
     33 H12          7.8540    -2.4660     2.0500 h1         1 TX6       0.003033
     34 H13          3.3070    -2.8670     3.0570 hc         1 TX6       0.027700
     35 H14          3.9200    -1.7900     4.3210 hc         1 TX6       0.027700
     36 H15          2.0420    -0.2960     4.0550 hc         1 TX6       0.028200
     37 H16          1.3950    -1.9430     4.1940 hc         1 TX6       0.028200
     38 H17          1.3900    -2.0530     1.6570 hc         1 TX6       0.048700
     39 H18         -0.2250     0.0970     3.0760 hc         1 TX6       0.045700
     40 H19         -0.7100    -2.8100     2.3460 hc         1 TX6       0.012367
     41 H20         -0.6510    -2.1000     3.9660 hc         1 TX6       0.012367
     42 H21         -1.9980    -1.7220     2.8830 hc         1 TX6       0.012367
     43 H23         -2.3920     0.5760     1.1610 ho         1 TX6       0.409000
@<TRIPOS>BOND
     1     1     2 3   
     2     2     3 1   
     3     3     4 1   
     4     3    21 2   
     5     4     5 1   
     6     4    23 1   
     7     4    24 1   
     8     5     6 1   
     9     5     7 1   
    10     5    18 1   
    11     6    25 1   
    12     6    26 1   
    13     6    27 1   
    14     7     8 ar  
    15     7    15 ar  
    16     8     9 ar  
    17     9    10 1   
    18     9    11 ar  
    19    10    28 1   
    20    10    29 1   
    21    10    30 1   
    22    11    12 ar  
    23    12    13 1   
    24    12    15 ar  
    25    13    14 1   
    26    14    31 1   
    27    14    32 1   
    28    14    33 1   
    29    15    16 1   
    30    16    17 1   
    31    16    34 1   
    32    16    35 1   
    33    17    18 1   
    34    17    36 1   
    35    17    37 1   
    36    18    19 1   
    37    18    38 1   
    38    19    20 1   
    39    19    21 1   
    40    19    39 1   
    41    20    40 1   
    42    20    41 1   
    43    20    42 1   
    44    21    22 1   
    45    22    43 1   
@<TRIPOS>SUBSTRUCTURE
     1 TX6         1 TEMP              0 ****  ****    0 ROOT
