@<TRIPOS>MOLECULE
TX7
   44    46     1     0     0
SMALL
bcc


@<TRIPOS>ATOM
      1 O18          0.0000     0.0000     0.0000 o          1 TX7      -0.428000
      2 N16          1.2180     0.0000     0.0000 no         1 TX7       1.045200
      3 O19          1.8270     0.0000     1.0550 o          1 TX7      -0.428000
      4 C15          1.9580    -0.0060    -1.2810 ca         1 TX7      -0.365200
      5 C14          2.9570     0.9200    -1.5080 ca         1 TX7      -0.029000
      6 C13          3.6490     0.9160    -2.7060 ca         1 TX7      -0.090000
      7 C12          3.3470    -0.0150    -3.6830 ca         1 TX7      -0.060000
      8 C11          2.3520    -0.9470    -3.4700 ca         1 TX7      -0.096000
      9 C10          1.6520    -0.9510    -2.2610 ca         1 TX7      -0.075600
     10 C9           0.5880    -1.9490    -2.0230 c          1 TX7       0.570700
     11 O17          0.0640    -2.0300    -0.9290 o          1 TX7      -0.613100
     12 N8           0.1990    -2.7690    -3.0200 ns         1 TX7      -0.187900
     13 C7          -0.8560    -3.7580    -2.7840 c3         1 TX7       0.115300
     14 C6          -1.1020    -4.5420    -4.0480 ca         1 TX7      -0.129300
     15 C5          -2.1690    -4.2220    -4.8630 ca         1 TX7      -0.044000
     16 C4          -2.3950    -4.9400    -6.0230 ca         1 TX7       0.023100
     17 Br2         -3.8580    -4.4980    -7.1370 br         1 TX7      -0.101100
     18 C3          -1.5530    -5.9810    -6.3700 ca         1 TX7      -0.043000
     19 C2          -0.4840    -6.3050    -5.5570 ca         1 TX7       0.012100
     20 Br           0.6670    -7.7290    -6.0300 br         1 TX7      -0.087100
     21 C1          -0.2520    -5.5810    -4.3950 ca         1 TX7       0.161100
     22 O20          0.8020    -5.8950    -3.5970 os         1 TX7      -0.321200
     23 C21          0.5860    -6.8040    -2.6260 c          1 TX7       0.713700
     24 O22         -0.5130    -7.3050    -2.4960 o          1 TX7      -0.556000
     25 C25          1.6870    -7.1940    -1.7210 ca         1 TX7      -0.146600
     26 C30          2.9500    -6.6160    -1.8640 ca         1 TX7      -0.036500
     27 C26          1.4650    -8.1360    -0.7140 ca         1 TX7      -0.036500
     28 C27          2.4960    -8.4940     0.1280 ca         1 TX7      -0.098000
     29 C28          3.7480    -7.9230    -0.0220 ca         1 TX7       0.064100
     30 C29          3.9730    -6.9830    -1.0160 ca         1 TX7      -0.098000
     31 Br1          5.1570    -8.4200     1.1380 br         1 TX7      -0.115100
     32 H1           3.1980     1.6520    -0.7460 ha         1 TX7       0.125000
     33 H2           4.4310     1.6450    -2.8790 ha         1 TX7       0.115000
     34 H3           3.8920    -0.0110    -4.6200 ha         1 TX7       0.110000
     35 H4           2.1180    -1.6770    -4.2360 ha         1 TX7       0.114000
     36 H5           0.5970    -2.6710    -3.9330 hn         1 TX7       0.180500
     37 H6          -0.5480    -4.4330    -1.9940 h1         1 TX7       0.040200
     38 H7          -1.7670    -3.2510    -2.4900 h1         1 TX7       0.040200
     39 H8          -2.8340    -3.4100    -4.5910 ha         1 TX7       0.128000
     40 H9          -1.7320    -6.5430    -7.2790 ha         1 TX7       0.133000
     41 H10          3.1260    -5.8820    -2.6410 ha         1 TX7       0.124000
     42 H11          0.4860    -8.5840    -0.5950 ha         1 TX7       0.124000
     43 H12          2.3270    -9.2260     0.9090 ha         1 TX7       0.122500
     44 H13          4.9540    -6.5380    -1.1270 ha         1 TX7       0.122500
@<TRIPOS>BOND
     1     1     2 1   
     2     2     3 1   
     3     2     4 1   
     4     4     5 ar  
     5     4     9 ar  
     6     5     6 ar  
     7     5    32 1   
     8     6     7 ar  
     9     6    33 1   
    10     7     8 ar  
    11     7    34 1   
    12     8     9 ar  
    13     8    35 1   
    14     9    10 1   
    15    10    11 2   
    16    10    12 1   
    17    12    13 1   
    18    12    36 1   
    19    13    14 1   
    20    13    37 1   
    21    13    38 1   
    22    14    15 ar  
    23    14    21 ar  
    24    15    16 ar  
    25    15    39 1   
    26    16    17 1   
    27    16    18 ar  
    28    18    19 ar  
    29    18    40 1   
    30    19    20 1   
    31    19    21 ar  
    32    21    22 1   
    33    22    23 1   
    34    23    24 2   
    35    23    25 1   
    36    25    26 ar  
    37    25    27 ar  
    38    26    30 ar  
    39    26    41 1   
    40    27    28 ar  
    41    27    42 1   
    42    28    29 ar  
    43    28    43 1   
    44    29    30 ar  
    45    29    31 1   
    46    30    44 1   
@<TRIPOS>SUBSTRUCTURE
     1 TX7         1 TEMP              0 ****  ****    0 ROOT
