@<TRIPOS>MOLECULE
molecule
   52    54     1     0     0
SMALL
bcc


@<TRIPOS>ATOM
      1 OXT          0.0000     0.0000     0.0000 o          1 TXA      -0.847800
      2 CX           1.3420     0.0000     0.0000 c          1 TXA       0.894600
      3 OX           1.9470    -0.0010    -1.0460 o          1 TXA      -0.847800
      4 CAX          2.0950     0.0000     1.3060 c3         1 TXA       0.035700
      5 CBX          1.7250     1.2500     2.1070 c3         1 TXA       0.147100
      6 CGX          2.5810     1.3140     3.3740 c3         1 TXA      -0.124100
      7 OGX          1.9620     2.4130     1.3120 oh         1 TXA      -0.595800
      8 NX           3.5350     0.0000     1.0380 ns         1 TXA      -0.556900
      9 CCA          4.1790    -1.1630     0.8150 c          1 TXA       0.801100
     10 OP2          5.5030    -1.1630     0.5700 os         1 TXA      -0.576500
     11 OCA          3.5650    -2.2110     0.8370 o          1 TXA      -0.573000
     12 P            6.1990    -2.5920     0.3130 p5         1 TXA       1.353800
     13 OP3          6.1140    -3.4790     1.6550 o          1 TXA      -0.801500
     14 OP1          5.4970    -3.2930    -0.7850 o          1 TXA      -0.801500
     15 O5'          7.7420    -2.3730    -0.0880 os         1 TXA      -0.595200
     16 C5'          8.6040    -3.4450    -0.4790 c3         1 TXA       0.240400
     17 C4'          9.9960    -2.8910    -0.7920 c3         1 TXA       0.122100
     18 C3'         10.9100    -4.0110    -1.3380 c3         1 TXA       0.090100
     19 O3'         10.9660    -3.9610    -2.7640 oh         1 TXA      -0.574800
     20 C2'         12.2940    -3.6940    -0.7300 c3         1 TXA       0.080100
     21 O2'         13.2490    -3.4420    -1.7630 oh         1 TXA      -0.568800
     22 C1'         12.0540    -2.4200     0.1110 c3         1 TXA       0.244800
     23 O4'         10.6420    -2.4430     0.4190 os         1 TXA      -0.384600
     24 N9          12.8450    -2.4640     1.3430 na         1 TXA      -0.242000
     25 C8          12.4180    -2.9000     2.5610 cc         1 TXA       0.461700
     26 N7          13.3810    -2.8000     3.4310 nd         1 TXA      -0.611100
     27 C5          14.4830    -2.2960     2.8280 ca         1 TXA      -0.189200
     28 C6          15.7840    -1.9780     3.2530 ca         1 TXA       0.769200
     29 N6          16.1670    -2.1750     4.5680 nv         1 TXA      -1.017500
     30 N1          16.6390    -1.4840     2.3630 nb         1 TXA      -0.829000
     31 C2          16.2830    -1.2930     1.1060 ca         1 TXA       0.707900
     32 N3          15.0760    -1.5760     0.6630 nb         1 TXA      -0.762000
     33 C4          14.1550    -2.0790     1.4790 ca         1 TXA       0.458800
     34 H2           1.8330    -0.8840     1.8740 h1         1 TXA       0.078700
     35 H3           0.6780     1.2070     2.3810 h1         1 TXA       0.045700
     36 H4           3.5720     1.6740     3.1220 hc         1 TXA       0.027033
     37 H5           2.6560     0.3250     3.8090 hc         1 TXA       0.027033
     38 H6           2.1220     1.9880     4.0860 hc         1 TXA       0.027033
     39 H7           1.3440     3.0850     1.5470 ho         1 TXA       0.373000
     40 H8           4.0300     0.8670     0.9640 hn         1 TXA       0.305500
     41 H10          8.6750    -4.1640     0.3270 h1         1 TXA       0.041700
     42 H11          8.2010    -3.9290    -1.3610 h1         1 TXA       0.041700
     43 H12          9.9330    -2.0780    -1.5060 h1         1 TXA       0.086700
     44 H13         10.5620    -4.9790    -0.9990 h1         1 TXA       0.052700
     45 H14         10.7720    -4.8140    -3.1160 ho         1 TXA       0.397000
     46 H15         12.6220    -4.5080    -0.0940 h1         1 TXA       0.044700
     47 H16         13.8280    -4.1810    -1.8430 ho         1 TXA       0.395000
     48 H17         12.2960    -1.5380    -0.4690 h2         1 TXA       0.105700
     49 H18         11.4240    -3.2750     2.7740 h5         1 TXA       0.109800
     50 H19         15.5160    -2.0060     5.3100 hn         1 TXA       0.441800
     51 H20         17.0900    -2.5020     4.7770 hn         1 TXA       0.441800
     52 H21         17.0110    -0.8880     0.4140 h5         1 TXA       0.051100
@<TRIPOS>BOND
     1     3     2 1
     2     7     5 1
     3     2     1 1
     4     2     4 1
     5     5     4 1
     6     5     6 1
     7     4     8 1
     8     8     9 1
     9    11     9 2
    10     9    10 1
    11    10    12 1
    12    23    22 1
    13    23    17 1
    14    14    12 1
    15    22    24 1
    16    22    20 1
    17    32    31 ar
    18    32    33 ar
    19    31    30 ar
    20    33    24 1
    21    33    27 ar
    22    24    25 1
    23    12    15 1
    24    12    13 1
    25    30    28 ar
    26    25    26 2
    27    27    28 ar
    28    27    26 1
    29    28    29 1
    30    17    16 1
    31    17    18 1
    32    16    15 1
    33    21    20 1
    34    20    18 1
    35    18    19 1
    36     4    34 1
    37     5    35 1
    38     6    36 1
    39     6    37 1
    40     6    38 1
    41     7    39 1
    42     8    40 1
    43    16    41 1
    44    16    42 1
    45    17    43 1
    46    18    44 1
    47    19    45 1
    48    20    46 1
    49    21    47 1
    50    22    48 1
    51    25    49 1
    52    29    50 1
    53    29    51 1
    54    31    52 1
@<TRIPOS>SUBSTRUCTURE
     1 TXA         1 TEMP              0 ****  ****    0 ROOT
