@<TRIPOS>MOLECULE
molecule
   20    20     1     0     0
SMALL
bcc


@<TRIPOS>ATOM
      1 S4           0.0000     0.0000     0.0000 sh         1 TXB      -0.406900
      2 C4           1.8140     0.0000     0.0000 c3         1 TXB      -0.001600
      3 C5           2.3260     0.0000     1.4420 c3         1 TXB       0.147400
      4 O5           3.7540     0.0580     1.4390 os         1 TXB      -0.430600
      5 C1           4.2890     1.2320     0.8250 c3         1 TXB       0.322900
      6 O1           3.8000     2.3900     1.5060 oh         1 TXB      -0.609800
      7 C2           3.8550     1.2820    -0.6420 c3         1 TXB       0.117100
      8 O2           4.3410     2.4840    -1.2430 oh         1 TXB      -0.586800
      9 C3           2.3260     1.2540    -0.7160 c3         1 TXB       0.162100
     10 O3           1.9140     1.2260    -2.0840 oh         1 TXB      -0.598800
     11 HS4         -0.4430    -1.2280    -0.2430 hs         1 TXB       0.221800
     12 H4           2.1810    -0.8820    -0.5120 h1         1 TXB       0.079700
     13 H51C         1.9310     0.8630     1.9640 h1         1 TXB       0.069700
     14 H52C         2.0040    -0.9070     1.9390 h1         1 TXB       0.069700
     15 H3           1.9260     2.1350    -0.2310 h1         1 TXB       0.076700
     16 H1           5.3700     1.2050     0.8790 h2         1 TXB       0.070700
     17 HA           4.4730     2.7290     2.0730 ho         1 TXB       0.414000
     18 H2           4.2570     0.4230    -1.1650 h1         1 TXB       0.059700
     19 HB           5.0230     2.2740    -1.8590 ho         1 TXB       0.406000
     20 HC           1.3510     1.9620    -2.2580 ho         1 TXB       0.417000
@<TRIPOS>BOND
     1     1     2 1
     2     2     3 1
     3     2     9 1
     4     3     4 1
     5     4     5 1
     6     5     6 1
     7     5     7 1
     8     7     8 1
     9     7     9 1
    10     9    10 1
    11     1    11 1
    12     2    12 1
    13     3    13 1
    14     3    14 1
    15     9    15 1
    16     5    16 1
    17     6    17 1
    18     7    18 1
    19     8    19 1
    20    10    20 1
@<TRIPOS>SUBSTRUCTURE
     1 TXB         1 TEMP              0 ****  ****    0 ROOT
