@<TRIPOS>MOLECULE
molecule
   45    46     1     0     0
SMALL
bcc


@<TRIPOS>ATOM
      1 CG2          0.0000     0.0000     0.0000 c3         1 TXC      -0.111600
      2 CB           1.5300     0.0000     0.0000 c3         1 TXC      -0.099700
      3 CG1          2.0400     1.2500    -0.7200 c3         1 TXC      -0.111600
      4 CA           2.0400     0.0000     1.4440 c3         1 TXC       0.060500
      5 N            1.5500     1.1990     2.1360 nz         1 TXC      -0.802600
      6 C            3.5460    -0.0000     1.4440 c          1 TXC       0.626100
      7 O            4.1500     1.0300     1.6260 o          1 TXC      -0.523000
      8 OAO          4.2170    -1.1460     1.2420 os         1 TXC      -0.400900
      9 CAI          5.6680    -1.0710     1.2560 c3         1 TXC       0.152400
     10 CAH          6.2530    -2.4620     1.0110 c3         1 TXC       0.149400
     11 OAN          5.9090    -2.8980    -0.3060 os         1 TXC      -0.447600
     12 CAJ          6.4100    -4.1940    -0.6390 c3         1 TXC       0.263100
     13 N9           6.0030    -4.5400    -2.0030 na         1 TXC      -0.168900
     14 C8           5.2610    -3.7630    -2.8450 cc         1 TXC       0.503400
     15 N7           5.0870    -4.3810    -3.9770 nd         1 TXC      -0.610000
     16 C5           5.7040    -5.5870    -3.9280 cd         1 TXC       0.316800
     17 C4           6.3010    -5.6980    -2.6670 cc         1 TXC       0.022800
     18 N3           6.9880    -6.8040    -2.3550 nc         1 TXC      -0.567100
     19 C2           7.1160    -7.7900    -3.2130 cd         1 TXC       0.470800
     20 N2           7.8310    -8.9020    -2.8480 nz         1 TXC      -0.729600
     21 N1           6.5610    -7.7380    -4.4570 ns         1 TXC      -0.464400
     22 C6           5.8460    -6.6580    -4.8410 c          1 TXC       0.622000
     23 O6           5.3470    -6.6020    -5.9520 o          1 TXC      -0.510500
     24 HG21        -0.3610    -0.3010    -0.9760 hc         1 TXC       0.061533
     25 HG22        -0.3610     0.9960     0.2270 hc         1 TXC       0.061533
     26 HG23        -0.3610    -0.6940     0.7490 hc         1 TXC       0.061533
     27 HB           1.8920    -0.8840    -0.5110 hc         1 TXC       0.113700
     28 HG11         1.5810     2.1300    -0.2860 hc         1 TXC       0.061533
     29 HG12         3.1160     1.3140    -0.6140 hc         1 TXC       0.061533
     30 HG13         1.7840     1.1900    -1.7710 hc         1 TXC       0.061533
     31 HA           1.6780    -0.8850     1.9540 hx         1 TXC       0.135700
     32 HN1          1.6530     1.9950     1.5380 hn         1 TXC       0.469133
     33 HN2          0.5840     1.0790     2.3680 hn         1 TXC       0.469133
     34 HAI1         6.0010    -0.7040     2.2200 h1         1 TXC       0.085200
     35 HAI2         6.0020    -0.3960     0.4780 h1         1 TXC       0.085200
     36 HAH1         5.8500    -3.1570     1.7370 h1         1 TXC       0.063200
     37 HAH2         7.3310    -2.4230     1.1080 h1         1 TXC       0.063200
     38 HAJ1         6.0090    -4.9240     0.0540 h2         1 TXC       0.064700
     39 HAJ2         7.4910    -4.1910    -0.5740 h2         1 TXC       0.064700
     40 H8           4.8750    -2.7790    -2.6070 h5         1 TXC       0.104100
     41 H21N         7.2390    -9.7080    -2.8930 hn         1 TXC       0.481800
     42 H22N         8.6050    -9.0210    -3.4710 hn         1 TXC       0.481800
     43 H1           6.6780    -8.5070    -5.0870 hn         1 TXC       0.357500
     44 HN3          2.0920     1.3520     2.9630 hn         1 TXC       0.469133
     45 H23          8.1750    -8.7870    -1.9150 hn         1 TXC       0.481800
@<TRIPOS>BOND
     1     1     2 1
     2     2     3 1
     3     2     4 1
     4     4     5 1
     5     4     6 1
     6     6     7 2
     7     6     8 1
     8     8     9 1
     9     9    10 1
    10    10    11 1
    11    11    12 1
    12    12    13 1
    13    13    14 1
    14    13    17 1
    15    14    15 2
    16    15    16 1
    17    16    17 2
    18    16    22 1
    19    17    18 1
    20    18    19 2
    21    19    20 1
    22    19    21 1
    23    21    22 1
    24    22    23 2
    25     1    24 1
    26     1    25 1
    27     1    26 1
    28     2    27 1
    29     3    28 1
    30     3    29 1
    31     3    30 1
    32     4    31 1
    33     5    32 1
    34     5    33 1
    35     9    34 1
    36     9    35 1
    37    10    36 1
    38    10    37 1
    39    12    38 1
    40    12    39 1
    41    14    40 1
    42    20    41 1
    43    20    42 1
    44    21    43 1
    45    44     5 1
    46    45    20 1
@<TRIPOS>SUBSTRUCTURE
     1 TXC         1 TEMP              0 ****  ****    0 ROOT
