@<TRIPOS>MOLECULE
TXC
   45    46     1     0     0
SMALL
bcc


@<TRIPOS>ATOM
      1 CG2          0.0000     0.0000     0.0000 c3         1 TXC      -0.013600
      2 CB           1.5300     0.0000     0.0000 c3         1 TXC      -0.064700
      3 CG1          2.0400     1.2500    -0.7200 c3         1 TXC      -0.013600
      4 CA           2.0400     0.0000     1.4440 c3         1 TXC      -0.124500
      5 N            1.5500     1.1990     2.1360 nz         1 TXC       0.069400
      6 C            3.5460    -0.0000     1.4440 c          1 TXC       0.702100
      7 O            4.1500     1.0300     1.6260 o          1 TXC      -0.558000
      8 OAO          4.2170    -1.1460     1.2420 os         1 TXC      -0.383900
      9 CAI          5.6680    -1.0710     1.2560 c3         1 TXC       0.230400
     10 CAH          6.2530    -2.4620     1.0110 c3         1 TXC       0.223400
     11 OAN          5.9090    -2.8980    -0.3060 os         1 TXC      -0.426600
     12 CAJ          6.4100    -4.1940    -0.6390 c3         1 TXC       0.198100
     13 N9           6.0030    -4.5400    -2.0030 na         1 TXC       0.318100
     14 C8           5.2610    -3.7630    -2.8450 cc         1 TXC       0.315400
     15 N7           5.0870    -4.3810    -3.9770 nd         1 TXC      -0.500000
     16 C5           5.7040    -5.5870    -3.9280 cd         1 TXC       0.288800
     17 C4           6.3010    -5.6980    -2.6670 cc         1 TXC      -0.231200
     18 N3           6.9880    -6.8040    -2.3550 nc         1 TXC      -0.363100
     19 C2           7.1160    -7.7900    -3.2130 cd         1 TXC      -0.000200
     20 N2           7.8310    -8.9020    -2.8480 nz         1 TXC       0.218400
     21 N1           6.5610    -7.7380    -4.4570 ns         1 TXC       0.004600
     22 C6           5.8460    -6.6580    -4.8410 c          1 TXC       0.517000
     23 O6           5.3470    -6.6020    -5.9520 o          1 TXC      -0.550500
     24 HG21        -0.3610    -0.3010    -0.9760 hc         1 TXC       0.027867
     25 HG22        -0.3610     0.9960     0.2270 hc         1 TXC       0.027867
     26 HG23        -0.3610    -0.6940     0.7490 hc         1 TXC       0.027867
     27 HB           1.8920    -0.8840    -0.5110 hc         1 TXC       0.077700
     28 HG11         1.5810     2.1300    -0.2860 hc         1 TXC       0.027867
     29 HG12         3.1160     1.3140    -0.6140 hc         1 TXC       0.027867
     30 HG13         1.7840     1.1900    -1.7710 hc         1 TXC       0.027867
     31 HA           1.6780    -0.8850     1.9540 hx         1 TXC       0.105700
     32 HN1          1.6530     1.9950     1.5380 hn         1 TXC       0.240467
     33 HN2          0.5840     1.0790     2.3680 hn         1 TXC       0.240467
     34 HAI1         6.0010    -0.7040     2.2200 h1         1 TXC       0.038200
     35 HAI2         6.0020    -0.3960     0.4780 h1         1 TXC       0.038200
     36 HAH1         5.8500    -3.1570     1.7370 h1         1 TXC       0.019700
     37 HAH2         7.3310    -2.4230     1.1080 h1         1 TXC       0.019700
     38 HAJ1         6.0090    -4.9240     0.0540 h2         1 TXC       0.024700
     39 HAJ2         7.4910    -4.1910    -0.5740 h2         1 TXC       0.024700
     40 H8           4.8750    -2.7790    -2.6070 h5         1 TXC       0.048100
     41 H21N         7.2390    -9.7080    -2.8930 hn         1 TXC       0.220467
     42 H22N         8.6050    -9.0210    -3.4710 hn         1 TXC       0.220467
     43 H1           6.6780    -8.5070    -5.0870 hn         1 TXC       0.195500
     44 HN3          2.0920     1.3520     2.9630 hn         1 TXC       0.240467
     45 H23          8.1750    -8.7870    -1.9150 hn         1 TXC       0.220467
@<TRIPOS>BOND
     1     1     2 1   
     2     1    24 1   
     3     1    25 1   
     4     1    26 1   
     5     2     3 1   
     6     2     4 1   
     7     2    27 1   
     8     3    28 1   
     9     3    29 1   
    10     3    30 1   
    11     4     5 1   
    12     4     6 1   
    13     4    31 1   
    14     5    32 1   
    15     5    33 1   
    16     5    44 1   
    17     6     7 2   
    18     6     8 1   
    19     8     9 1   
    20     9    10 1   
    21     9    34 1   
    22     9    35 1   
    23    10    11 1   
    24    10    36 1   
    25    10    37 1   
    26    11    12 1   
    27    12    13 1   
    28    12    38 1   
    29    12    39 1   
    30    13    14 1   
    31    13    17 1   
    32    14    15 2   
    33    14    40 1   
    34    15    16 1   
    35    16    17 2   
    36    16    22 1   
    37    17    18 1   
    38    18    19 2   
    39    19    20 1   
    40    19    21 1   
    41    20    41 1   
    42    20    42 1   
    43    20    45 1   
    44    21    22 1   
    45    21    43 1   
    46    22    23 2   
@<TRIPOS>SUBSTRUCTURE
     1 TXC         1 TEMP              0 ****  ****    0 ROOT
