@<TRIPOS>MOLECULE
molecule
   62    64     1     0     0
SMALL
bcc


@<TRIPOS>ATOM
      1 O29          0.0000     0.0000     0.0000 oh         1 TXF      -0.523100
      2 C26          1.3580     0.0000     0.0000 ca         1 TXF       0.102100
      3 C25          2.0510     0.0000     1.2040 ca         1 TXF      -0.152500
      4 C24          3.4300    -0.0000     1.2080 ca         1 TXF      -0.101500
      5 C27          2.0510    -0.0010    -1.2040 ca         1 TXF      -0.152500
      6 C28          3.4300     0.0040    -1.2080 ca         1 TXF      -0.101500
      7 C23          4.1290    -0.0010    -0.0000 ca         1 TXF      -0.049800
      8 C11          5.6090    -0.0010    -0.0000 ce         1 TXF      -0.012400
      9 C12          6.2870    -1.0660    -0.4970 cf         1 TXF      -0.048400
     10 C17          5.5560    -2.1670    -1.1420 ca         1 TXF      -0.054800
     11 C22          5.7380    -2.4280    -2.5050 ca         1 TXF      -0.113500
     12 C21          5.0500    -3.4620    -3.1020 ca         1 TXF      -0.127500
     13 C20          4.1810    -4.2420    -2.3580 ca         1 TXF      -0.126000
     14 C19          3.9950    -3.9890    -1.0100 ca         1 TXF      -0.127500
     15 C18          4.6800    -2.9620    -0.3960 ca         1 TXF      -0.113500
     16 C13          7.7890    -1.1200    -0.3860 c3         1 TXF      -0.040200
     17 C14          8.1790    -1.8930     0.8750 c3         1 TXF      -0.074400
     18 C15          9.7000    -2.0550     0.9230 c3         1 TXF       0.139400
     19 O16         10.0660    -2.7770     2.1010 oh         1 TXF      -0.611800
     20 C8           6.3480     1.1600     0.5400 ca         1 TXF      -0.085800
     21 C7           7.0860     1.9810    -0.3150 ca         1 TXF      -0.080000
     22 C6           7.7740     3.0610     0.1930 ca         1 TXF      -0.193500
     23 C9           6.3100     1.4380     1.9080 ca         1 TXF      -0.080000
     24 C10          7.0050     2.5180     2.4090 ca         1 TXF      -0.193500
     25 C5           7.7340     3.3360     1.5540 ca         1 TXF       0.124100
     26 O4           8.4120     4.4020     2.0510 os         1 TXF      -0.277900
     27 C3           8.1790     4.4200     3.4600 c3         1 TXF       0.120400
     28 C2           8.9200     5.6040     4.0850 c3         1 TXF       0.129800
     29 N1           8.3500     6.8600     3.5810 n3         1 TXF      -0.659600
     30 C31          7.0760     7.0580     4.2870 c3         1 TXF       0.120100
     31 C30          9.2470     7.9380     4.0180 c3         1 TXF       0.120100
     32 H29         -0.3140     0.8890    -0.0060 ho         1 TXF       0.418000
     33 H25          1.5080     0.0010     2.1410 ha         1 TXF       0.139500
     34 H24          3.9690    -0.0020     2.1470 ha         1 TXF       0.136500
     35 H27          1.5070     0.0030    -2.1410 ha         1 TXF       0.139500
     36 H28          3.9690     0.0040    -2.1470 ha         1 TXF       0.136500
     37 H22          6.4170    -1.8190    -3.0880 ha         1 TXF       0.134000
     38 H21          5.1900    -3.6650    -4.1570 ha         1 TXF       0.130000
     39 H20          3.6410    -5.0520    -2.8340 ha         1 TXF       0.128000
     40 H19          3.3150    -4.6040    -0.4330 ha         1 TXF       0.130000
     41 H18          4.5340    -2.7660     0.6590 ha         1 TXF       0.134000
     42 H131         8.1830    -0.1130    -0.3290 hc         1 TXF       0.053700
     43 H132         8.1970    -1.6190    -1.2560 hc         1 TXF       0.053700
     44 H141         7.7130    -2.8710     0.8590 hc         1 TXF       0.058200
     45 H142         7.8460    -1.3490     1.7510 hc         1 TXF       0.058200
     46 H151        10.1660    -1.0770     0.9390 h1         1 TXF       0.019700
     47 H152        10.0330    -2.5990     0.0480 h1         1 TXF       0.019700
     48 H16         10.9860    -2.9790     2.0730 ho         1 TXF       0.401000
     49 H7           7.1180     1.7680    -1.3770 ha         1 TXF       0.135500
     50 H6           8.3440     3.7000    -0.4710 ha         1 TXF       0.143500
     51 H9           5.7430     0.8010     2.5760 ha         1 TXF       0.135500
     52 H10          6.9760     2.7350     3.4700 ha         1 TXF       0.143500
     53 H31          7.1170     4.5180     3.6490 h1         1 TXF       0.043200
     54 H32          8.5390     3.4970     3.8980 h1         1 TXF       0.043200
     55 H21A         9.9700     5.5530     3.8220 h1         1 TXF       0.048700
     56 H22A         8.8160     5.5670     5.1630 h1         1 TXF       0.048700
     57 H311         6.2870     6.5320     3.7630 h1         1 TXF       0.035700
     58 H312         6.8430     8.1160     4.3230 h1         1 TXF       0.035700
     59 H313         7.1590     6.6730     5.2960 h1         1 TXF       0.035700
     60 H301         9.3160     7.9330     5.0990 h1         1 TXF       0.035700
     61 H302        10.2310     7.7840     3.5920 h1         1 TXF       0.035700
     62 H303         8.8550     8.8910     3.6860 h1         1 TXF       0.035700
@<TRIPOS>BOND
     1     1     2 1
     2     1    32 1
     3     2     3 ar
     4     2     5 ar
     5     3     4 ar
     6     3    33 1
     7     4     7 ar
     8     4    34 1
     9     5     6 ar
    10     5    35 1
    11     6     7 ar
    12     6    36 1
    13     7     8 1
    14     8     9 2
    15     8    20 1
    16     9    10 1
    17     9    16 1
    18    10    11 ar
    19    10    15 ar
    20    11    12 ar
    21    11    37 1
    22    12    13 ar
    23    12    38 1
    24    13    14 ar
    25    13    39 1
    26    14    15 ar
    27    14    40 1
    28    15    41 1
    29    16    17 1
    30    16    42 1
    31    16    43 1
    32    17    18 1
    33    17    44 1
    34    17    45 1
    35    18    19 1
    36    18    46 1
    37    18    47 1
    38    19    48 1
    39    20    21 ar
    40    20    23 ar
    41    21    22 ar
    42    21    49 1
    43    22    25 ar
    44    22    50 1
    45    23    24 ar
    46    23    51 1
    47    24    25 ar
    48    24    52 1
    49    25    26 1
    50    26    27 1
    51    27    28 1
    52    27    53 1
    53    27    54 1
    54    28    29 1
    55    28    55 1
    56    28    56 1
    57    29    30 1
    58    29    31 1
    59    30    57 1
    60    30    58 1
    61    30    59 1
    62    31    60 1
    63    31    61 1
    64    31    62 1
@<TRIPOS>SUBSTRUCTURE
     1 TXF         1 TEMP              0 ****  ****    0 ROOT
