@<TRIPOS>MOLECULE
TXG
   89    93     1     0     0
SMALL
bcc


@<TRIPOS>ATOM
      1 O01          0.0000     0.0000     0.0000 o          1 TXG      -0.611100
      2 C02          1.2130     0.0000     0.0000 c          1 TXG       0.582100
      3 C03          1.9290     0.0000     1.3190 c3         1 TXG      -0.083300
      4 C04          1.1470    -0.8310     2.3380 c3         1 TXG       0.040900
      5 C05          1.9350    -0.9250     3.6190 ca         1 TXG      -0.087300
      6 C06          1.7620     0.0260     4.6090 ca         1 TXG      -0.094000
      7 C07          2.4840    -0.0600     5.7840 ca         1 TXG      -0.100000
      8 C08          3.3790    -1.0970     5.9710 ca         1 TXG      -0.103000
      9 C09          3.5520    -2.0480     4.9820 ca         1 TXG      -0.100000
     10 C10          2.8250    -1.9650     3.8090 ca         1 TXG      -0.094000
     11 N11          2.0040     1.4240     1.7710 ns         1 TXG      -0.212900
     12 C12          3.2830     1.9290     1.7980 c          1 TXG       0.562100
     13 C13          3.4690     3.3990     2.0920 c3         1 TXG      -0.045300
     14 C14          2.2440     3.9370     2.8350 c3         1 TXG      -0.033100
     15 C15          2.4630     5.3890     3.1760 ca         1 TXG      -0.083300
     16 C16          3.0600     5.7350     4.3750 ca         1 TXG      -0.102000
     17 C17          3.2650     7.0660     4.6850 ca         1 TXG      -0.098500
     18 C18          2.8740     8.0510     3.7990 ca         1 TXG      -0.103000
     19 C19          2.2760     7.7060     2.6010 ca         1 TXG      -0.098500
     20 C20          2.0700     6.3740     2.2900 ca         1 TXG      -0.102000
     21 N21          3.6200     4.1020     0.7940 ns         1 TXG      -0.144900
     22 C22          2.5410     4.0020    -0.0280 c          1 TXG       0.560100
     23 C23          2.6170     4.4290    -1.4700 c3         1 TXG      -0.051300
     24 C24          2.0110     5.8230    -1.6390 c3         1 TXG      -0.028400
     25 C25          2.2070     6.2940    -3.0810 c3         1 TXG      -0.029400
     26 C26          1.6010     7.6890    -3.2500 c3         1 TXG      -0.028400
     27 C27          1.7960     8.1590    -4.6930 c3         1 TXG      -0.028400
     28 C28          1.1910     9.5530    -4.8610 c3         1 TXG      -0.033400
     29 C29          1.3870    10.0230    -6.3040 c3         1 TXG       0.402600
     30 O30          2.7830    10.0710    -6.6040 oh         1 TXG      -0.592800
     31 O31          0.7390     9.1130    -7.1940 oh         1 TXG      -0.592800
     32 C32          0.7810    11.4180    -6.4730 cx         1 TXG       0.010100
     33 O33          1.6780    12.5230    -6.6070 op         1 TXG      -0.352600
     34 C34          1.0010    12.1350    -7.8070 cx         1 TXG       0.129400
     35 N35          1.8230     3.4280    -2.2430 ns         1 TXG      -0.191900
     36 C36          2.3170     2.1580    -2.1320 c          1 TXG       0.560100
     37 C37          1.4070     0.9680    -2.1910 c3         1 TXG      -0.035300
     38 C38          1.4010     0.3250    -3.5610 c3         1 TXG      -0.021400
     39 C39          2.7330    -0.3700    -3.8530 c3         1 TXG      -0.036400
     40 C40          2.9420    -1.4780    -2.8180 c3         1 TXG      -0.030400
     41 C41          3.0050    -0.8500    -1.4250 c3         1 TXG       0.054000
     42 N42          1.8530    -0.0060    -1.1790 n          1 TXG      -0.162800
     43 O43          3.5100     1.9920    -1.9850 o          1 TXG      -0.624100
     44 O44          1.4990     3.5620     0.4090 o          1 TXG      -0.677100
     45 O45          4.2390     1.2110     1.5890 o          1 TXG      -0.623100
     46 H031         2.9280    -0.4040     1.1990 h1         1 TXG       0.088700
     47 H041         0.1930    -0.3560     2.5350 hc         1 TXG       0.033200
     48 H042         0.9800    -1.8250     1.9420 hc         1 TXG       0.033200
     49 H061         1.0610     0.8390     4.4630 ha         1 TXG       0.104500
     50 H071         2.3490     0.6850     6.5590 ha         1 TXG       0.100500
     51 H081         3.9470    -1.1630     6.8910 ha         1 TXG       0.100000
     52 H091         4.2520    -2.8610     5.1300 ha         1 TXG       0.100500
     53 H101         2.9610    -2.7100     3.0350 ha         1 TXG       0.104500
     54 H111         1.2270     2.0380     1.6220 hn         1 TXG       0.233500
     55 H131         4.3580     3.5440     2.6950 h1         1 TXG       0.062700
     56 H142         2.0960     3.3700     3.7460 hc         1 TXG       0.062700
     57 H141         1.3690     3.8420     2.2040 hc         1 TXG       0.062700
     58 H161         3.3670     4.9630     5.0700 ha         1 TXG       0.108500
     59 H171         3.7330     7.3370     5.6240 ha         1 TXG       0.102000
     60 H181         3.0350     9.0940     4.0430 ha         1 TXG       0.103000
     61 H191         1.9690     8.4780     1.9060 ha         1 TXG       0.102000
     62 H201         1.6020     6.1030     1.3510 ha         1 TXG       0.108500
     63 H211         4.5320     4.2500     0.4080 hn         1 TXG       0.191500
     64 H231         3.6470     4.4260    -1.8050 h1         1 TXG       0.069700
     65 H242         2.5020     6.5140    -0.9640 hc         1 TXG       0.029200
     66 H241         0.9520     5.7870    -1.4120 hc         1 TXG       0.029200
     67 H252         3.2660     6.3300    -3.3090 hc         1 TXG       0.022200
     68 H251         1.7160     5.6030    -3.7560 hc         1 TXG       0.022200
     69 H262         2.0920     8.3790    -2.5760 hc         1 TXG       0.014200
     70 H261         0.5430     7.6520    -3.0230 hc         1 TXG       0.014200
     71 H271         1.3050     7.4680    -5.3680 hc         1 TXG       0.029200
     72 H272         2.8550     8.1950    -4.9210 hc         1 TXG       0.029200
     73 H281         0.1320     9.5170    -4.6340 hc         1 TXG       0.027700
     74 H282         1.6810    10.2440    -4.1860 hc         1 TXG       0.027700
     75 H301         2.9200     9.8220    -7.5030 ho         1 TXG       0.402500
     76 H311         0.0710     9.5680    -7.6780 ho         1 TXG       0.402500
     77 H321        -0.1560    11.6500    -5.9810 h1         1 TXG       0.065700
     78 H341         0.1990    12.7900    -8.1270 h1         1 TXG       0.041200
     79 H342         1.6010    11.6010    -8.5340 h1         1 TXG       0.041200
     80 H351         0.8440     3.5730    -2.3930 hn         1 TXG       0.188500
     81 H371         0.3990     1.2810    -1.9500 h1         1 TXG       0.062700
     82 H382         1.2300     1.0890    -4.3100 hc         1 TXG       0.023700
     83 H381         0.6040    -0.4070    -3.6050 hc         1 TXG       0.023700
     84 H392         2.7070    -0.8020    -4.8460 hc         1 TXG       0.028700
     85 H391         3.5400     0.3490    -3.7840 hc         1 TXG       0.028700
     86 H401         3.8720    -1.9940    -3.0250 hc         1 TXG       0.020200
     87 H402         2.1150    -2.1760    -2.8640 hc         1 TXG       0.020200
     88 H412         3.0310    -1.6390    -0.6830 h1         1 TXG       0.032700
     89 H411         3.9050    -0.2520    -1.3460 h1         1 TXG       0.032700
@<TRIPOS>BOND
     1     1     2 2   
     2     2     3 1   
     3     2    42 1   
     4     3     4 1   
     5     3    11 1   
     6     3    46 1   
     7     4     5 1   
     8     4    47 1   
     9     4    48 1   
    10     5     6 ar  
    11     5    10 ar  
    12     6     7 ar  
    13     6    49 1   
    14     7     8 ar  
    15     7    50 1   
    16     8     9 ar  
    17     8    51 1   
    18     9    10 ar  
    19     9    52 1   
    20    10    53 1   
    21    11    12 1   
    22    11    54 1   
    23    12    13 1   
    24    12    45 2   
    25    13    14 1   
    26    13    21 1   
    27    13    55 1   
    28    14    15 1   
    29    14    56 1   
    30    14    57 1   
    31    15    16 ar  
    32    15    20 ar  
    33    16    17 ar  
    34    16    58 1   
    35    17    18 ar  
    36    17    59 1   
    37    18    19 ar  
    38    18    60 1   
    39    19    20 ar  
    40    19    61 1   
    41    20    62 1   
    42    21    22 1   
    43    21    63 1   
    44    22    23 1   
    45    22    44 2   
    46    23    24 1   
    47    23    35 1   
    48    23    64 1   
    49    24    25 1   
    50    24    65 1   
    51    24    66 1   
    52    25    26 1   
    53    25    67 1   
    54    25    68 1   
    55    26    27 1   
    56    26    69 1   
    57    26    70 1   
    58    27    28 1   
    59    27    71 1   
    60    27    72 1   
    61    28    29 1   
    62    28    73 1   
    63    28    74 1   
    64    29    30 1   
    65    29    31 1   
    66    29    32 1   
    67    30    75 1   
    68    31    76 1   
    69    32    33 1   
    70    32    34 1   
    71    32    77 1   
    72    33    34 1   
    73    34    78 1   
    74    34    79 1   
    75    35    36 1   
    76    35    80 1   
    77    36    37 1   
    78    36    43 2   
    79    37    38 1   
    80    37    42 1   
    81    37    81 1   
    82    38    39 1   
    83    38    82 1   
    84    38    83 1   
    85    39    40 1   
    86    39    84 1   
    87    39    85 1   
    88    40    41 1   
    89    40    86 1   
    90    40    87 1   
    91    41    42 1   
    92    41    88 1   
    93    41    89 1   
@<TRIPOS>SUBSTRUCTURE
     1 TXG         1 TEMP              0 ****  ****    0 ROOT
