@<TRIPOS>MOLECULE
TXI
   34    33     1     0     0
SMALL
bcc


@<TRIPOS>ATOM
      1 N1           0.0000     0.0000     0.0000 ns         1 TXI      -0.202900
      2 O1           4.0870     0.0000    -0.3960 o          1 TXI      -0.516100
      3 C1           4.2360     0.0010    -2.7480 c3         1 TXI      -0.041000
      4 O2          -0.0700    -0.0910     2.2160 o          1 TXI      -0.639100
      5 C2          -2.1910     1.4780     3.2630 c3         1 TXI      -0.002600
      6 C3           3.4820     0.0010    -1.4430 c          1 TXI       0.583100
      7 O3          -2.6620     0.0370    -0.1720 oh         1 TXI      -0.593800
      8 C4           1.9750     0.0010    -1.4420 c3         1 TXI      -0.131400
      9 O4          -4.4830     2.8830     2.2310 oh         1 TXI      -0.588800
     10 C5          -1.8750     2.5910     1.0480 c3         1 TXI      -0.002600
     11 C6           1.4660     0.0000     0.0000 c3         1 TXI       0.057000
     12 C7          -2.1770     0.1140     1.1700 c3         1 TXI       0.127100
     13 C8          -0.6740     0.0000     1.1680 c          1 TXI       0.555100
     14 C9          -2.5850     1.4540     1.7850 c3         1 TXI      -0.068000
     15 C10         -4.1000     1.6310     1.6580 c3         1 TXI       0.228400
     16 Cl1          6.0080     0.0000    -2.4180 cl         1 TXI      -0.078400
     17 H1          -0.5000    -0.0440    -0.8660 hn         1 TXI       0.186500
     18 H2           3.9740    -0.8840    -3.3160 h1         1 TXI       0.041200
     19 H3           3.9750     0.8860    -3.3150 h1         1 TXI       0.041200
     20 H4          -2.3370     0.4940     3.6920 hc         1 TXI       0.016867
     21 H5          -1.1500     1.7610     3.3550 hc         1 TXI       0.016867
     22 H6          -2.8090     2.1960     3.7900 hc         1 TXI       0.016867
     23 H7          -2.9380    -0.8460    -0.3570 ho         1 TXI       0.393000
     24 H8           1.6140     0.8860    -1.9520 hc         1 TXI       0.036200
     25 H9           1.6140    -0.8830    -1.9540 hc         1 TXI       0.036200
     26 H10         -5.4140     2.9970     2.1440 ho         1 TXI       0.388000
     27 H11         -2.2320     3.5430     1.4230 hc         1 TXI       0.016867
     28 H12         -2.0830     2.5190    -0.0130 hc         1 TXI       0.016867
     29 H13         -0.8060     2.5160     1.2120 hc         1 TXI       0.016867
     30 H14          1.8270     0.8840     0.5110 h1         1 TXI       0.040700
     31 H15          1.8270    -0.8850     0.5100 h1         1 TXI       0.040700
     32 H16         -2.5990    -0.6950     1.7540 h1         1 TXI       0.028700
     33 H17         -4.6030     0.8260     2.1790 h1         1 TXI      -0.009300
     34 H18         -4.3790     1.6130     0.6110 h1         1 TXI      -0.009300
@<TRIPOS>BOND
     1     1    11 1   
     2     1    13 1   
     3     1    17 1   
     4     2     6 2   
     5     3     6 1   
     6     3    16 1   
     7     3    18 1   
     8     3    19 1   
     9     4    13 2   
    10     5    14 1   
    11     5    20 1   
    12     5    21 1   
    13     5    22 1   
    14     6     8 1   
    15     7    12 1   
    16     7    23 1   
    17     8    11 1   
    18     8    24 1   
    19     8    25 1   
    20     9    15 1   
    21     9    26 1   
    22    10    14 1   
    23    10    27 1   
    24    10    28 1   
    25    10    29 1   
    26    11    30 1   
    27    11    31 1   
    28    12    13 1   
    29    12    14 1   
    30    12    32 1   
    31    14    15 1   
    32    15    33 1   
    33    15    34 1   
@<TRIPOS>SUBSTRUCTURE
     1 TXI         1 TEMP              0 ****  ****    0 ROOT
