@<TRIPOS>MOLECULE
TXQ
   28    30     1     0     0
SMALL
bcc


@<TRIPOS>ATOM
      1 O18        -0.0550    0.4300   -0.0290 o         1 TXQ     -0.493100
      2 C9          1.1670    0.2510   -0.0020 c         1 TXQ      0.593300
      3 C8          1.9350    0.1110    1.2550 ca        1 TXQ     -0.131600
      4 C13         1.3160   -0.3420    2.4340 ca        1 TXQ      0.135100
      5 O17        -0.0160   -0.6710    2.3610 oh        1 TXQ     -0.467100
      6 C12         2.0490   -0.4740    3.6270 ca        1 TXQ     -0.167000
      7 C11         3.3980   -0.1640    3.6450 ca        1 TXQ     -0.162000
      8 C14         4.0300    0.2830    2.4690 ca        1 TXQ      0.132100
      9 O16         5.3720    0.5710    2.4320 oh        1 TXQ     -0.465100
     10 C7          3.3040    0.4290    1.2740 ca        1 TXQ     -0.124600
     11 C10         3.9620    0.9240    0.0400 c         1 TXQ      0.597300
     12 O19         4.9220    1.6960    0.0630 o         1 TXQ     -0.465100
     13 C2          1.9690    0.1460   -1.2440 ca        1 TXQ     -0.131600
     14 C1          3.3440    0.4450   -1.2170 ca        1 TXQ     -0.138600
     15 C3          1.3460   -0.2500   -2.4260 ca        1 TXQ     -0.086000
     16 C4          2.0840   -0.3840   -3.6030 ca        1 TXQ     -0.165000
     17 C5          3.4510   -0.1150   -3.5860 ca        1 TXQ      0.051100
     18 O20         4.2660   -0.2300   -4.6930 oh        1 TXQ     -0.512100
     19 C6          4.0950    0.3060   -2.3930 ca        1 TXQ      0.157100
     20 O15         5.4390    0.5580   -2.3420 oh        1 TXQ     -0.463100
     21 HO17       -0.3160   -0.9000    3.2540 ho        1 TXQ      0.420000
     22 H12         1.5480   -0.8230    4.5420 ha        1 TXQ      0.143000
     23 H11         3.9790   -0.2660    4.5740 ha        1 TXQ      0.143000
     24 HO16        5.7200    0.4930    3.3330 ho        1 TXQ      0.420000
     25 H3          0.2620   -0.4540   -2.4250 ha        1 TXQ      0.161000
     26 H4          1.5920   -0.6990   -4.5350 ha        1 TXQ      0.143000
     27 HO20        3.7080   -0.4530   -5.4520 ho        1 TXQ      0.435000
     28 HO15        5.7940    0.5000   -3.2450 ho        1 TXQ      0.440000
@<TRIPOS>BOND
     1    1    2 2   
     2    2    3 1   
     3    2   13 1   
     4    3    4 ar  
     5    3   10 ar  
     6    4    5 1   
     7    4    6 ar  
     8    5   21 1   
     9    6    7 ar  
    10    6   22 1   
    11    7    8 ar  
    12    7   23 1   
    13    8    9 1   
    14    8   10 ar  
    15    9   24 1   
    16   10   11 1   
    17   11   12 2   
    18   11   14 1   
    19   13   14 ar  
    20   13   15 ar  
    21   14   19 ar  
    22   15   16 ar  
    23   15   25 1   
    24   16   17 ar  
    25   16   26 1   
    26   17   18 1   
    27   17   19 ar  
    28   18   27 1   
    29   19   20 1   
    30   20   28 1   
@<TRIPOS>SUBSTRUCTURE
     1 TXQ         1 TEMP              0 ****  ****    0 ROOT
