@<TRIPOS>MOLECULE
molecule
   28    30     1     0     0
SMALL
bcc


@<TRIPOS>ATOM
      1 O18          0.0000     0.0000     0.0000 o          1 TXQ      -0.486100
      2 C9           1.2160     0.0000     0.0000 c          1 TXQ       0.585300
      3 C8           1.9630     0.0000     1.2710 ca         1 TXQ      -0.136600
      4 C13          1.3180    -0.2870     2.4750 ca         1 TXQ       0.142100
      5 O17         -0.0090    -0.5710     2.4840 oh         1 TXQ      -0.483100
      6 C12          2.0400    -0.2810     3.6670 ca         1 TXQ      -0.150000
      7 C11          3.3870     0.0060     3.6670 ca         1 TXQ      -0.154000
      8 C14          4.0490     0.2950     2.4740 ca         1 TXQ       0.146100
      9 O16          5.3760     0.5760     2.4830 oh         1 TXQ      -0.484100
     10 C7           3.3430     0.2930     1.2710 ca         1 TXQ      -0.134600
     11 C10          4.0250     0.5930    -0.0020 c          1 TXQ       0.581300
     12 O19          5.1380     1.0840    -0.0020 o          1 TXQ      -0.463100
     13 C2           1.9630    -0.0060    -1.2750 ca         1 TXQ      -0.130600
     14 C1           3.3420     0.2910    -1.2740 ca         1 TXQ      -0.141600
     15 C3           1.3160    -0.2990    -2.4710 ca         1 TXQ      -0.079000
     16 C4           2.0240    -0.3040    -3.6590 ca         1 TXQ      -0.143000
     17 C5           3.3800    -0.0190    -3.6700 ca         1 TXQ       0.081100
     18 O20          4.0630    -0.0270    -4.8440 oh         1 TXQ      -0.515100
     19 C6           4.0490     0.2900    -2.4760 ca         1 TXQ       0.140100
     20 O15          5.3760     0.5700    -2.4880 oh         1 TXQ      -0.487100
     21 HO17        -0.1470    -1.4130     2.8840 ho         1 TXQ       0.422000
     22 H12          1.5380    -0.5040     4.6010 ha         1 TXQ       0.146000
     23 H11          3.9360     0.0070     4.6010 ha         1 TXQ       0.145000
     24 HO16         5.5480     1.2580     3.1110 ho         1 TXQ       0.427000
     25 H3           0.2560    -0.5230    -2.4720 ha         1 TXQ       0.160000
     26 H4           1.5150    -0.5320    -4.5880 ha         1 TXQ       0.149000
     27 HO20         3.8480     0.7460    -5.3380 ho         1 TXQ       0.431000
     28 HO15         5.8630    -0.2230    -2.6380 ho         1 TXQ       0.433000
@<TRIPOS>BOND
     1     1     2 2
     2     2     3 1
     3     2    13 1
     4     3     4 ar
     5     3    10 ar
     6     4     5 1
     7     4     6 ar
     8     6     7 ar
     9     7     8 ar
    10     8     9 1
    11     8    10 ar
    12    10    11 1
    13    11    12 2
    14    11    14 1
    15    13    14 ar
    16    13    15 ar
    17    14    19 ar
    18    15    16 ar
    19    16    17 ar
    20    17    18 1
    21    17    19 ar
    22    19    20 1
    23     5    21 1
    24     6    22 1
    25     7    23 1
    26     9    24 1
    27    15    25 1
    28    16    26 1
    29    18    27 1
    30    20    28 1
@<TRIPOS>SUBSTRUCTURE
     1 TXQ         1 TEMP              0 ****  ****    0 ROOT
