@<TRIPOS>MOLECULE
molecule
   42    44     1     0     0
SMALL
bcc


@<TRIPOS>ATOM
      1 C21          0.0000     0.0000     0.0000 c3         1 TXS       0.145800
      2 C22          1.5400     0.0000     0.0000 c3         1 TXS      -0.088900
      3 C23          1.9440     0.0000     1.4920 c3         1 TXS      -0.088900
      4 C24          0.6830    -0.5650     2.1920 c3         1 TXS       0.145800
      5 N25         -0.4340     0.0300     1.4130 n3         1 TXS      -0.700600
      6 C5'         -1.6730    -0.7370     1.6010 c3         1 TXS       0.160800
      7 C4'         -2.2240    -0.4810     3.0050 c3         1 TXS       0.140100
      8 O4'         -1.2770    -0.9200     4.0030 os         1 TXS      -0.426600
      9 C3'         -3.4840    -1.3390     3.2530 c3         1 TXS       0.110100
     10 O3'         -4.6670    -0.5630     3.0410 oh         1 TXS      -0.593800
     11 C2'         -3.3690    -1.7570     4.7360 c3         1 TXS      -0.143400
     12 C1'         -2.0520    -1.1020     5.2090 c3         1 TXS       0.321500
     13 N1          -1.3480    -1.9880     6.1390 n          1 TXS      -0.367000
     14 C6          -0.1160    -2.4810     5.8040 cc         1 TXS       0.041600
     15 C5           0.5330    -3.2970     6.6620 cd         1 TXS      -0.285400
     16 C5M          1.8900    -3.8490     6.3120 c3         1 TXS      -0.019900
     17 C4          -0.0780    -3.6260     7.8960 c          1 TXS       0.707700
     18 O4           0.4880    -4.3590     8.6860 o          1 TXS      -0.620500
     19 N3          -1.2940    -3.1200     8.1890 ns         1 TXS      -0.558500
     20 C2          -1.9160    -2.3040     7.3170 c          1 TXS       0.812500
     21 O2          -3.0100    -1.8510     7.5970 o          1 TXS      -0.659500
     22 H21         -0.3680    -0.8990    -0.4790 h1         1 TXS       0.044700
     23 H21A        -0.3680     0.8780    -0.5170 h1         1 TXS       0.044700
     24 H22          1.9140    -0.8910    -0.4890 hc         1 TXS       0.049950
     25 H22A         1.9140     0.8910    -0.4890 hc         1 TXS       0.049950
     26 H23          2.7950    -0.6490     1.6560 hc         1 TXS       0.049950
     27 H23A         2.1500     1.0080     1.8310 hc         1 TXS       0.049950
     28 H24          0.6610    -1.6460     2.1230 h1         1 TXS       0.044700
     29 H24A         0.6430    -0.2400     3.2250 h1         1 TXS       0.044700
     30 H5'         -2.4040    -0.4270     0.8650 h1         1 TXS       0.046200
     31 H5'A        -1.4650    -1.7930     1.4820 h1         1 TXS       0.046200
     32 H4'         -2.4520     0.5690     3.1420 h1         1 TXS       0.088700
     33 H3'         -3.4770    -2.2130     2.6140 h1         1 TXS       0.048700
     34 HO3'        -5.3230    -1.0980     2.6270 ho         1 TXS       0.409000
     35 H2'         -3.3070    -2.8350     4.8210 hc         1 TXS       0.082700
     36 H2'A        -4.2080    -1.3720     5.3040 hc         1 TXS       0.082700
     37 H1'         -2.2550    -0.1440     5.6720 h2         1 TXS       0.090700
     38 H6           0.3830    -2.1300     4.9090 h4         1 TXS       0.183000
     39 H5M          2.1040    -4.7070     6.9380 hc         1 TXS       0.049700
     40 H5MA         1.9000    -4.1500     5.2710 hc         1 TXS       0.049700
     41 H5MB         2.6430    -3.0870     6.4740 hc         1 TXS       0.049700
     42 HN3         -1.7310    -3.3460     9.0600 hn         1 TXS       0.364500
@<TRIPOS>BOND
     1     1     2 1
     2     1     5 1
     3     2     3 1
     4     3     4 1
     5     4     5 1
     6     5     6 1
     7     6     7 1
     8     7     8 1
     9     7     9 1
    10     8    12 1
    11     9    10 1
    12     9    11 1
    13    11    12 1
    14    12    13 1
    15    13    14 1
    16    13    20 1
    17    14    15 2
    18    15    16 1
    19    15    17 1
    20    17    18 2
    21    17    19 1
    22    19    20 1
    23    20    21 2
    24     1    22 1
    25     1    23 1
    26     2    24 1
    27     2    25 1
    28     3    26 1
    29     3    27 1
    30     4    28 1
    31     4    29 1
    32     6    30 1
    33     6    31 1
    34     7    32 1
    35     9    33 1
    36    10    34 1
    37    11    35 1
    38    11    36 1
    39    12    37 1
    40    14    38 1
    41    16    39 1
    42    16    40 1
    43    16    41 1
    44    19    42 1
@<TRIPOS>SUBSTRUCTURE
     1 TXS         1 TEMP              0 ****  ****    0 ROOT
