@<TRIPOS>MOLECULE
TXW
   29    30     1     0     0
SMALL
bcc


@<TRIPOS>ATOM
      1 C5           0.0000     0.0000     0.0000 ca         1 TXW      -0.283300
      2 C7           2.0620     0.0010    -1.2420 ca         1 TXW      -0.260100
      3 C6           1.3940     0.0000     0.0000 ca         1 TXW      -0.038400
      4 C4          -0.6630     0.0010    -1.2080 ca         1 TXW       0.431600
      5 C13          1.3090     0.0020    -2.4190 ca         1 TXW       0.445600
      6 C8           3.5240     0.0010    -1.2600 cc         1 TXW       0.000800
      7 C9           4.1840    -0.0000    -0.0750 cd         1 TXW      -0.217200
      8 C10          3.4650     0.0010     1.1410 c          1 TXW       0.592700
      9 C15          2.0000     0.0020    -3.7560 c3         1 TXW      -0.048400
     10 C1          -4.2020     1.1850    -2.0640 c3         1 TXW       0.005900
     11 C3          -2.1690     0.0020    -1.2210 c3         1 TXW      -0.075700
     12 C2          -2.6720     1.1840    -2.0510 c3         1 TXW      -0.026400
     13 N14         -0.0070     0.0020    -2.3570 nb         1 TXW      -0.603000
     14 N12          2.1200     0.0000     1.1660 ns         1 TXW       0.050900
     15 O11          4.0790    -0.0010     2.1930 o          1 TXW      -0.682500
     16 H5          -0.5420    -0.2080     0.9150 ha         1 TXW       0.127000
     17 H8           4.0670    -0.0000    -2.1970 ha         1 TXW       0.115000
     18 H12          1.6420     0.0010     2.0450 hn         1 TXW       0.177500
     19 H31C        -2.5390     0.0910    -0.2070 hc         1 TXW       0.024200
     20 H32C        -2.5270    -0.9230    -1.6560 hc         1 TXW       0.024200
     21 H151         1.2590     0.0040    -4.5460 hc         1 TXW       0.019033
     22 H152         2.6180    -0.8830    -3.8430 hc         1 TXW       0.019033
     23 H153         2.6210     0.8860    -3.8420 hc         1 TXW       0.019033
     24 H9           5.2670     0.0000    -0.0610 ha         1 TXW       0.136000
     25 H11C        -4.5720     1.3840    -1.0660 hc         1 TXW       0.000700
     26 H12C        -4.5610     0.2180    -2.3960 hc         1 TXW       0.000700
     27 H13C        -4.5570     1.9530    -2.7400 hc         1 TXW       0.000700
     28 H21C        -2.3020     1.0960    -3.0660 hc         1 TXW       0.021700
     29 H22C        -2.3140     2.1100    -1.6160 hc         1 TXW       0.021700
@<TRIPOS>BOND
     1     1     3 ar  
     2     1     4 ar  
     3     1    16 1   
     4     2     3 ar  
     5     2     5 ar  
     6     2     6 1   
     7     3    14 1   
     8     4    11 1   
     9     4    13 ar  
    10     5     9 1   
    11     5    13 ar  
    12     6     7 2   
    13     6    17 1   
    14     7     8 1   
    15     7    24 1   
    16     8    14 1   
    17     8    15 2   
    18     9    21 1   
    19     9    22 1   
    20     9    23 1   
    21    10    12 1   
    22    10    25 1   
    23    10    26 1   
    24    10    27 1   
    25    11    12 1   
    26    11    19 1   
    27    11    20 1   
    28    12    28 1   
    29    12    29 1   
    30    14    18 1   
@<TRIPOS>SUBSTRUCTURE
     1 TXW         1 TEMP              0 ****  ****    0 ROOT
