@<TRIPOS>MOLECULE
TXZ
   38    37     1     0     0
SMALL
bcc


@<TRIPOS>ATOM
      1 C           0.3500   -1.2610   -0.7890 c         1 TXZ      0.915600
      2 N           2.1040    0.3880   -1.3890 n         1 TXZ     -0.487900
      3 O           0.2810   -2.5110   -0.6160 o         1 TXZ     -0.852800
      4 P           2.1180    2.5510    1.6400 p5        1 TXZ      1.428800
      5 C1          3.4040    0.5600   -1.7850 c         1 TXZ      0.664100
      6 O1          4.2900   -0.3230   -1.7030 o         1 TXZ     -0.669100
      7 C2          3.7480    1.8980   -2.4380 c3        1 TXZ     -0.172400
      8 C3          3.1340    2.0300   -3.8130 c3        1 TXZ     -0.071400
      9 C4          3.4360    3.3920   -4.4020 c3        1 TXZ     -0.078400
     10 C5          2.8950    3.5200   -5.8120 c3        1 TXZ     -0.074400
     11 C6          3.0920    4.9240   -6.3260 c3        1 TXZ      0.025700
     12 S6          2.6600    4.9480   -8.0500 sh        1 TXZ     -0.407900
     13 CA          1.6900   -0.5580   -0.3770 c3        1 TXZ     -0.045300
     14 CB          1.4580    0.1030    1.0190 c3        1 TXZ      0.185100
     15 CG          1.3740   -1.0010    2.0650 c3        1 TXZ     -0.104100
     16 O1P         1.5970    2.9420    0.1300 oh        1 TXZ     -0.797400
     17 O2P         3.3620    3.2900    1.9390 o         1 TXZ     -0.848000
     18 O3P         0.8770    2.6270    2.4430 o         1 TXZ     -0.848000
     19 O4P         2.5000    0.9820    1.3560 os        1 TXZ     -0.585200
     20 OXT        -0.5930   -0.5620   -1.2570 o         1 TXZ     -0.852800
     21 HN          0.6540    2.8530    0.0520 ho        1 TXZ      0.426000
     22 H2          4.8640    1.9670   -2.5080 hc        1 TXZ      0.070200
     23 H2A         3.3890    2.7290   -1.7690 hc        1 TXZ      0.070200
     24 H3          2.0220    1.8870   -3.7520 hc        1 TXZ      0.048200
     25 H3A         3.5360    1.2280   -4.4860 hc        1 TXZ      0.048200
     26 H4          4.5450    3.5630   -4.4090 hc        1 TXZ      0.039200
     27 H4A         2.9820    4.1850   -3.7500 hc        1 TXZ      0.039200
     28 H5          1.8030    3.2600   -5.8210 hc        1 TXZ      0.055700
     29 H5A         3.4180    2.7890   -6.4840 hc        1 TXZ      0.055700
     30 H6          4.1560    5.2390   -6.2030 h1        1 TXZ      0.057200
     31 H6A         2.4500    5.6390   -5.7580 h1        1 TXZ      0.057200
     32 HS6         2.7450    6.2470   -8.2630 hs        1 TXZ      0.182800
     33 HA          2.4930   -1.3410   -0.2750 h1        1 TXZ      0.074700
     34 HB          0.4840    0.6760    0.9890 h1        1 TXZ      0.045700
     35 HG          0.7040   -1.8130    1.6910 hc        1 TXZ      0.032367
     36 HGA         0.9730   -0.5920    3.0220 hc        1 TXZ      0.032367
     37 HGB         2.3900   -1.4210    2.2550 hc        1 TXZ      0.032367
     38 H21         1.4990    1.1790   -1.4660 hn        1 TXZ      0.310500
@<TRIPOS>BOND
     1    1    3 1   
     2    1   13 1   
     3    1   20 1   
     4    2    5 1   
     5    2   13 1   
     6    2   38 1   
     7    4   16 1   
     8    4   17 1   
     9    4   18 1   
    10    4   19 1   
    11    5    6 2   
    12    5    7 1   
    13    7    8 1   
    14    7   22 1   
    15    7   23 1   
    16    8    9 1   
    17    8   24 1   
    18    8   25 1   
    19    9   10 1   
    20    9   26 1   
    21    9   27 1   
    22   10   11 1   
    23   10   28 1   
    24   10   29 1   
    25   11   12 1   
    26   11   30 1   
    27   11   31 1   
    28   12   32 1   
    29   13   14 1   
    30   13   33 1   
    31   14   15 1   
    32   14   19 1   
    33   14   34 1   
    34   15   35 1   
    35   15   36 1   
    36   15   37 1   
    37   16   21 1   
@<TRIPOS>SUBSTRUCTURE
     1 TXZ         1 TEMP              0 ****  ****    0 ROOT
