@<TRIPOS>MOLECULE
molecule
   37    36     1     0     0
SMALL
bcc


@<TRIPOS>ATOM
      1 C            0.0000     0.0000     0.0000 c          1 TXZ       0.909600
      2 N            1.9950     1.1960    -0.6920 ns         1 TXZ      -0.488900
      3 O           -0.6040     0.9090    -0.5190 o          1 TXZ      -0.836800
      4 P            0.5290     0.9260     3.4590 p5         1 TXZ       1.191900
      5 C1           2.1230     1.1940    -2.0330 c          1 TXZ       0.639100
      6 O1           1.8350     0.2030    -2.6680 o          1 TXZ      -0.677100
      7 C2           2.6260     2.4240    -2.7430 c3         1 TXZ      -0.163400
      8 C3           2.6780     2.1590    -4.2490 c3         1 TXZ      -0.060400
      9 C4           3.1880     3.4080    -4.9710 c3         1 TXZ      -0.085400
     10 C5           3.2390     3.1430    -6.4760 c3         1 TXZ      -0.066400
     11 C6           3.7490     4.3920    -7.1980 c3         1 TXZ       0.050700
     12 S6           3.8090     4.0770    -8.9820 sh         1 TXZ      -0.487900
     13 CA           1.5070     0.0000     0.0000 c3         1 TXZ      -0.013300
     14 CB           2.0170     0.0000     1.4420 c3         1 TXZ       0.234100
     15 CG           3.5410     0.1250     1.4430 c3         1 TXZ      -0.114100
     16 O1P         -0.0440     2.3610     3.9120 o          1 TXZ      -0.896500
     17 O2P          1.4100     0.2980     4.6510 o          1 TXZ      -0.896500
     18 O3P         -0.6000     0.0200     3.1510 o          1 TXZ      -0.896500
     19 O4P          1.4480     1.1030     2.1490 os         1 TXZ      -0.575200
     20 OXT         -0.6720    -1.0060     0.5810 o          1 TXZ      -0.836800
     21 HN           2.2160     2.0200    -0.1690 hn         1 TXZ       0.317500
     22 H2           1.9590     3.2540    -2.5460 hc         1 TXZ       0.041700
     23 H2A          3.6200     2.6670    -2.3850 hc         1 TXZ       0.041700
     24 H3           1.6850     1.9150    -4.6070 hc         1 TXZ       0.054700
     25 H3A          3.3470     1.3300    -4.4470 hc         1 TXZ       0.054700
     26 H4           4.1810     3.6520    -4.6130 hc         1 TXZ       0.032200
     27 H4A          2.5190     4.2370    -4.7730 hc         1 TXZ       0.032200
     28 H5           2.2460     2.8990    -6.8340 hc         1 TXZ       0.054200
     29 H5A          3.9080     2.3140    -6.6740 hc         1 TXZ       0.054200
     30 H6           4.7420     4.6360    -6.8400 h1         1 TXZ       0.046700
     31 H6A          3.0800     5.2210    -7.0000 h1         1 TXZ       0.046700
     32 HS6          4.2550     5.1600    -9.6080 hs         1 TXZ       0.178800
     33 HA           1.8680    -0.8850    -0.5100 h1         1 TXZ       0.032700
     34 HB           1.7300    -0.9260     1.9260 h1         1 TXZ       0.070700
     35 HG           3.9430    -0.3370     0.5490 hc         1 TXZ       0.004033
     36 HGA          3.9440    -0.3720     2.3180 hc         1 TXZ       0.004033
     37 HGB          3.8180     1.1720     1.4640 hc         1 TXZ       0.004033
@<TRIPOS>BOND
     1    13     1 1
     2     3     1 1
     3     1    20 1
     4     5     2 1
     5     2    13 1
     6     2    21 1
     7    18     4 1
     8    16     4 1
     9    19     4 1
    10     4    17 1
    11     7     5 1
    12     5     6 2
    13     7     8 1
    14     7    22 1
    15     7    23 1
    16     9     8 1
    17     8    24 1
    18     8    25 1
    19    10     9 1
    20     9    26 1
    21     9    27 1
    22    11    10 1
    23    10    28 1
    24    10    29 1
    25    12    11 1
    26    11    30 1
    27    11    31 1
    28    12    32 1
    29    14    13 1
    30    13    33 1
    31    15    14 1
    32    19    14 1
    33    14    34 1
    34    15    35 1
    35    15    36 1
    36    15    37 1
@<TRIPOS>SUBSTRUCTURE
     1 TXZ         1 TEMP              0 ****  ****    0 ROOT
