@<TRIPOS>MOLECULE
TY4
   45    47     1     0     0
SMALL
bcc


@<TRIPOS>ATOM
      1 C1           0.0000     0.0000     0.0000 ca         1 TY4       0.136100
      2 C2           1.3870     0.0000     0.0000 ca         1 TY4      -0.087300
      3 C3           2.0770     0.0000     1.1970 ca         1 TY4      -0.065000
      4 C4           1.3850    -0.0020     2.3950 ca         1 TY4       0.032100
      5 C5           0.0020    -0.0010     2.3970 ca         1 TY4      -0.060000
      6 C6          -0.6920     0.0050     1.2020 ca         1 TY4      -0.122300
      7 C7          -2.1990     0.0050     1.2050 c3         1 TY4       0.114300
      8 N8          -2.6880    -1.3540     0.9590 ns         1 TY4      -0.214900
      9 C9          -4.0130    -1.5970     0.9170 c          1 TY4       0.595700
     10 O10         -4.8030    -0.6870     1.0850 o          1 TY4      -0.648100
     11 C11         -4.5060    -2.9670     0.6700 ca         1 TY4      -0.156600
     12 C12         -3.6030    -4.0130     0.4780 ca         1 TY4      -0.073000
     13 C13         -4.0690    -5.2900     0.2470 ca         1 TY4      -0.114000
     14 C14         -5.4310    -5.5370     0.2050 ca         1 TY4      -0.068000
     15 C15         -6.3330    -4.5050     0.3940 ca         1 TY4      -0.118000
     16 C16         -5.8790    -3.2230     0.6320 ca         1 TY4       0.009400
     17 Cl17        -7.0120    -1.9290     0.8690 cl         1 TY4       0.035600
     18 C18          2.1420     0.0010    -1.3050 c3         1 TY4       0.058200
     19 Br19         2.3320    -0.0030     4.0310 br         1 TY4      -0.117100
     20 O20         -0.6800     0.0020    -1.1760 os         1 TY4      -0.312200
     21 C21         -0.9860    -1.1980    -1.7080 c          1 TY4       0.720700
     22 O22         -0.6550    -2.2180    -1.1370 o          1 TY4      -0.579000
     23 C23         -1.7240    -1.2740    -2.9840 ca         1 TY4      -0.157600
     24 C24         -2.1010    -0.1040    -3.6460 ca         1 TY4      -0.026000
     25 C25         -2.7900    -0.1810    -4.8380 ca         1 TY4      -0.117000
     26 C26         -3.1090    -1.4160    -5.3790 ca         1 TY4       0.004400
     27 C27         -2.7380    -2.5810    -4.7280 ca         1 TY4      -0.118000
     28 C28         -2.0430    -2.5170    -3.5380 ca         1 TY4       0.019400
     29 Cl29        -1.5730    -3.9780    -2.7270 cl         1 TY4       0.041600
     30 Cl30        -3.9780    -1.5040    -6.8800 cl         1 TY4      -0.004400
     31 H3           3.1610    -0.0000     1.1970 ha         1 TY4       0.123000
     32 H5          -0.5380    -0.0010     3.3360 ha         1 TY4       0.126000
     33 H7          -2.5610     0.6650     0.4260 h1         1 TY4       0.034700
     34 H7A         -2.5580     0.3500     2.1670 h1         1 TY4       0.034700
     35 HN8         -2.0380    -2.1110     0.8730 hn         1 TY4       0.201500
     36 H12         -2.5370    -3.8230     0.5110 ha         1 TY4       0.117000
     37 H13         -3.3680    -6.1030     0.0990 ha         1 TY4       0.108000
     38 H14         -5.7920    -6.5420     0.0210 ha         1 TY4       0.104000
     39 H15         -7.3970    -4.7050     0.3620 ha         1 TY4       0.116000
     40 H18          3.1060     0.4740    -1.1640 hc         1 TY4       0.016033
     41 H18A         2.2850    -1.0200    -1.6400 hc         1 TY4       0.016033
     42 H18B         1.5760     0.5480    -2.0490 hc         1 TY4       0.016033
     43 H24         -1.8530     0.8620    -3.2250 ha         1 TY4       0.123000
     44 H25         -3.0830     0.7260    -5.3520 ha         1 TY4       0.123000
     45 H27         -2.9880    -3.5440    -5.1580 ha         1 TY4       0.131000
@<TRIPOS>BOND
     1     1     2 ar  
     2     1     6 ar  
     3     1    20 1   
     4     2     3 ar  
     5     2    18 1   
     6     3     4 ar  
     7     3    31 1   
     8     4     5 ar  
     9     4    19 1   
    10     5     6 ar  
    11     5    32 1   
    12     6     7 1   
    13     7     8 1   
    14     7    33 1   
    15     7    34 1   
    16     8     9 1   
    17     8    35 1   
    18     9    10 2   
    19     9    11 1   
    20    11    12 ar  
    21    11    16 ar  
    22    12    13 ar  
    23    12    36 1   
    24    13    14 ar  
    25    13    37 1   
    26    14    15 ar  
    27    14    38 1   
    28    15    16 ar  
    29    15    39 1   
    30    16    17 1   
    31    18    40 1   
    32    18    41 1   
    33    18    42 1   
    34    20    21 1   
    35    21    22 2   
    36    21    23 1   
    37    23    24 ar  
    38    23    28 ar  
    39    24    25 ar  
    40    24    43 1   
    41    25    26 ar  
    42    25    44 1   
    43    26    27 ar  
    44    26    30 1   
    45    27    28 ar  
    46    27    45 1   
    47    28    29 1   
@<TRIPOS>SUBSTRUCTURE
     1 TY4         1 TEMP              0 ****  ****    0 ROOT
