@<TRIPOS>MOLECULE
molecule
   59    62     1     0     0
SMALL
bcc


@<TRIPOS>ATOM
      1 OPP          0.0000     0.0000     0.0000 os         1 TYA      -0.554200
      2 P            1.6100     0.0000     0.0000 p5         1 TYA       1.262800
      3 O1P          2.1260     0.0000     1.4560 o          1 TYA      -0.798000
      4 O2P          2.1250    -1.2610    -0.7300 o          1 TYA      -0.798000
      5 O5'          2.1460     1.3150    -0.7590 os         1 TYA      -0.532200
      6 C5'          3.5690     1.1990    -0.8310 c3         1 TYA       0.155400
      7 C4'          4.1450     2.4230    -1.5450 c3         1 TYA       0.126100
      8 O4'          3.9380     3.5990    -0.7430 os         1 TYA      -0.397600
      9 C3'          5.6650     2.2540    -1.7330 c3         1 TYA       0.085100
     10 O3'          6.0110     2.2790    -3.1190 oh         1 TYA      -0.577800
     11 C2'          6.2730     3.4780    -0.9980 c3         1 TYA       0.089100
     12 O2'          7.3620     4.0280    -1.7420 oh         1 TYA      -0.564800
     13 C1'          5.0760     4.4620    -0.9590 c3         1 TYA       0.257800
     14 N9           5.2200     5.4110     0.1460 na         1 TYA      -0.244000
     15 C8           4.7460     5.2510     1.4140 cc         1 TYA       0.446700
     16 N7           5.0530     6.2890     2.1380 nd         1 TYA      -0.597100
     17 C5           5.7420     7.1770     1.3830 ca         1 TYA      -0.156200
     18 C6           6.3150     8.4380     1.6170 ca         1 TYA       0.766200
     19 N6           6.2340     9.0320     2.8650 nv         1 TYA      -1.072500
     20 N1           6.9380     9.0480     0.6140 nb         1 TYA      -0.778000
     21 C2           7.0210     8.4880    -0.5790 ca         1 TYA       0.693900
     22 N3           6.4990     7.3100    -0.8450 nb         1 TYA      -0.739000
     23 C4           5.8620     6.6230     0.0980 ca         1 TYA       0.447800
     24 NH2         -2.4580    -1.3260    -0.7660 nz         1 TYA      -0.803600
     25 CA          -1.9410    -1.3050     0.6090 c3         1 TYA       0.104500
     26 C           -0.4130    -1.2400     0.5790 c3         1 TYA       0.132400
     27 CB          -2.3840    -2.5740     1.3400 c3         1 TYA      -0.056100
     28 CG          -3.8840    -2.5770     1.4790 ca         1 TYA      -0.146300
     29 CD1         -4.6660    -3.1490     0.4940 ca         1 TYA      -0.119000
     30 CD2         -4.4750    -2.0130     2.5940 ca         1 TYA      -0.119000
     31 CE1         -6.0420    -3.1520     0.6180 ca         1 TYA      -0.141500
     32 CE2         -5.8500    -2.0090     2.7210 ca         1 TYA      -0.141500
     33 CZ          -6.6380    -2.5820     1.7330 ca         1 TYA       0.126100
     34 OH          -7.9920    -2.5850     1.8580 oh         1 TYA      -0.516100
     35 H5'1         3.9780     1.1400     0.1710 h1         1 TYA       0.068200
     36 H5'2         3.8310     0.3030    -1.3810 h1         1 TYA       0.068200
     37 H4'          3.6690     2.5500    -2.5100 h1         1 TYA       0.080700
     38 H3'          6.0000     1.3340    -1.2700 h1         1 TYA       0.055700
     39 HO'3         6.4550     1.4790    -3.3470 ho         1 TYA       0.405000
     40 H2'          6.5800     3.2090     0.0050 h1         1 TYA       0.060700
     41 HO'2         8.1730     3.6670    -1.4270 ho         1 TYA       0.403000
     42 H1'          4.9830     4.9810    -1.9060 h2         1 TYA       0.109700
     43 H8           4.1400     4.4790     1.8740 h5         1 TYA       0.103800
     44 H61          6.9660     8.8940     3.5330 hn         1 TYA       0.440800
     45 H62          5.4660     9.6360     3.0820 hn         1 TYA       0.440800
     46 H2           7.5370     9.0200    -1.3690 h5         1 TYA       0.059100
     47 HA          -2.3290    -0.4360     1.1270 hx         1 TYA       0.121700
     48 H1          -0.0280    -1.3120     1.5890 h1         1 TYA       0.096700
     49 H2A         -0.0280    -2.0610    -0.0140 h1         1 TYA       0.096700
     50 HB1         -1.9300    -2.6010     2.3240 hc         1 TYA       0.089200
     51 HB2         -2.0710    -3.4440     0.7750 hc         1 TYA       0.089200
     52 HD1         -4.2000    -3.5940    -0.3770 ha         1 TYA       0.134500
     53 HD2         -3.8600    -1.5650     3.3650 ha         1 TYA       0.134500
     54 HE1         -6.6550    -3.6000    -0.1550 ha         1 TYA       0.155000
     55 HE2         -6.3130    -1.5650     3.5940 ha         1 TYA       0.155000
     56 HH          -8.2640    -3.3640     2.3160 ho         1 TYA       0.433000
     57 HN1         -2.3150    -2.2330    -1.1620 hn         1 TYA       0.452133
     58 HH22        -1.9760    -0.6420    -1.3140 hn         1 TYA       0.452133
     59 HN2         -3.4370    -1.1160    -0.7570 hn         1 TYA       0.452133
@<TRIPOS>BOND
     1     1     2 1
     2     1    26 1
     3     2     3 1
     4     2     4 1
     5     2     5 1
     6     5     6 1
     7     6     7 1
     8     6    35 1
     9     6    36 1
    10     7     8 1
    11     7     9 1
    12     7    37 1
    13     8    13 1
    14     9    10 1
    15     9    11 1
    16     9    38 1
    17    10    39 1
    18    11    12 1
    19    11    13 1
    20    11    40 1
    21    12    41 1
    22    13    14 1
    23    13    42 1
    24    14    15 1
    25    14    23 1
    26    15    16 2
    27    15    43 1
    28    16    17 1
    29    17    18 ar
    30    17    23 ar
    31    18    19 1
    32    18    20 ar
    33    19    44 1
    34    19    45 1
    35    20    21 ar
    36    21    22 ar
    37    21    46 1
    38    22    23 ar
    39    24    25 1
    40    24    57 1
    41    24    59 1
    42    25    26 1
    43    25    27 1
    44    25    47 1
    45    26    48 1
    46    26    49 1
    47    27    28 1
    48    27    50 1
    49    27    51 1
    50    28    29 ar
    51    28    30 ar
    52    29    31 ar
    53    29    52 1
    54    30    32 ar
    55    30    53 1
    56    31    33 ar
    57    31    54 1
    58    32    33 ar
    59    32    55 1
    60    33    34 1
    61    34    56 1
    62    58    24 1
@<TRIPOS>SUBSTRUCTURE
     1 TYA         1 TEMP              0 ****  ****    0 ROOT
