@<TRIPOS>MOLECULE
molecule
   27    27     1     0     0
SMALL
bcc


@<TRIPOS>ATOM
      1 N            0.0000     0.0000     0.0000 nz         1 TYC      -0.812600
      2 CA           1.4690     0.0000     0.0000 c3         1 TYC       0.100500
      3 C            1.9710     0.0000     1.4210 c          1 TYC       0.456100
      4 O            1.3160     0.5250     2.2950 o          1 TYC      -0.341100
      5 CB           1.9780     1.2470    -0.7230 c3         1 TYC      -0.086100
      6 CG           1.4760     1.2470    -2.1420 ca         1 TYC      -0.190300
      7 CD1          0.2690     1.8460    -2.4470 ca         1 TYC      -0.110000
      8 CD2          2.2270     0.6520    -3.1400 ca         1 TYC      -0.110000
      9 CE1         -0.1940     1.8460    -3.7490 ca         1 TYC      -0.129500
     10 CE2          1.7660     0.6460    -4.4420 ca         1 TYC      -0.129500
     11 CZ           0.5530     1.2460    -4.7490 ca         1 TYC       0.184100
     12 NXT          3.1480    -0.5830     1.7190 nz         1 TYC      -0.680400
     13 H0          -0.3340     0.9200     0.2080 hn         1 TYC       0.480467
     14 H           -0.3340    -0.2800    -0.9010 hn         1 TYC       0.480467
     15 HA           1.8290    -0.8850    -0.5100 hx         1 TYC       0.109700
     16 HB1          2.3760     0.2820    -1.0110 hc         1 TYC       0.098200
     17 HB2          2.8620     1.7970    -0.4210 hc         1 TYC       0.098200
     18 HD1         -0.3160     2.3150    -1.6640 ha         1 TYC       0.133000
     19 HD2          3.1730     0.1840    -2.8980 ha         1 TYC       0.133000
     20 HE1         -1.1410     2.3150    -3.9880 ha         1 TYC       0.183500
     21 HE2          2.3530     0.1780    -5.2220 ha         1 TYC       0.183500
     22 HH          -0.4240     0.4760    -6.1790 ho         1 TYC       0.450000
     23 HT21         3.1250    -1.5440     1.4390 hn         1 TYC       0.502467
     24 HT22         3.3080    -0.5270     2.7050 hn         1 TYC       0.502467
     25 OH           0.1010     1.2440    -6.0310 oh         1 TYC      -0.488100
     26 HN3         -0.3340    -0.6400     0.6930 hn         1 TYC       0.480467
     27 HXT3         3.8800    -0.1430     1.1970 hn         1 TYC       0.502467
@<TRIPOS>BOND
     1     1     2 1
     2     1    13 1
     3     1    14 1
     4     2     3 1
     5     2     5 1
     6     2    15 1
     7     3     4 2
     8     3    12 1
     9     5     6 1
    10     5    16 1
    11     5    17 1
    12     6     7 ar
    13     6     8 ar
    14     7     9 ar
    15     7    18 1
    16     8    10 ar
    17     8    19 1
    18     9    11 ar
    19     9    20 1
    20    10    11 ar
    21    10    21 1
    22    25    11 1
    23    25    22 1
    24    12    23 1
    25    12    24 1
    26    26     1 1
    27    27    12 1
@<TRIPOS>SUBSTRUCTURE
     1 TYC         1 TEMP              0 ****  ****    0 ROOT
