@<TRIPOS>MOLECULE
TYE
   26    21     1     0     0
SMALL
bcc


@<TRIPOS>ATOM
      1 C          -0.5510    1.5630   -0.8720 c1        1 TYE     -0.060000
      2 N           2.0080    0.1090   -0.7310 n3        1 TYE     -0.371000
      3 O          -0.0320    2.0510   -1.9360 oh        1 TYE     -0.149000
      4 CA          2.2010   -1.1560   -1.3940 c3        1 TYE     -0.158000
      5 CB          2.4710    0.4180    5.1320 c1        1 TYE     -0.143000
      6 CG          3.0750   -0.5390    4.7340 c1        1 TYE     -0.097500
      7 CZ          6.1050    1.7040    1.1840 c1        1 TYE      0.200000
      8 CD1         3.7460   -1.6440    4.3250 c1        1 TYE     -0.097500
      9 CD2         3.8930    0.4300    1.3910 c2        1 TYE      0.151000
     10 CE1         4.3290   -2.6410    4.0000 c1        1 TYE     -0.143000
     11 CE2         5.0380    1.0890    1.2880 c1        1 TYE     -0.210000
     12 H           2.1270   -1.9830   -0.6390 h1        1 TYE      0.084667
     13 HA         -1.6070    1.7980   -0.6200 ha        1 TYE      0.042000
     14 HN          1.0940    0.1550   -0.3020 hn        1 TYE      0.182500
     15 HNA         3.1660    0.3040    0.4850 ha        1 TYE      0.240500
     16 HO         -0.6010    2.6240   -2.4990 ho        1 TYE      0.177000
     17 HAA         1.4470   -1.3540   -2.2030 h1        1 TYE      0.084667
     18 HB          3.2240   -1.1810   -1.8590 h1        1 TYE      0.084667
     19 HBA         1.9320    1.2580    5.4960 ha        1 TYE      0.242000
     20 HOH         7.7360    2.4310    1.7280 ho        1 TYE      0.297000
     21 HD1         4.8410   -3.5300    3.7240 ha        1 TYE      0.242000
     22 HD2         3.5850   -0.0300    2.3560 ha        1 TYE      0.240500
     23 HE1         5.2520   -1.6080   -3.1280 ha        1 TYE      0.000500
     24 HE2         5.3840   -1.2720   -2.5560 ha        1 TYE      0.000500
     25 OH          7.1680    2.3650    0.9150 oh        1 TYE     -0.024000
     26 HN3         2.0610    0.8660   -1.3910 hn        1 TYE      0.182500
@<TRIPOS>BOND
     1    1    3 1   
     2    1   13 1   
     3    2    4 1   
     4    2   14 1   
     5    2   26 1   
     6    3   16 1   
     7    4   12 1   
     8    4   17 1   
     9    4   18 1   
    10    5    6 1   
    11    5   19 1   
    12    6    8 1   
    13    7   11 1   
    14    7   25 1   
    15    8   10 1   
    16    9   11 1   
    17    9   15 1   
    18    9   22 1   
    19   10   21 1   
    20   20   25 1   
    21   23   24 1   
@<TRIPOS>SUBSTRUCTURE
     1 TYE         1 TEMP              0 ****  ****    0 ROOT
