@<TRIPOS>MOLECULE
TYF
   22    22     1     0     0
SMALL
bcc


@<TRIPOS>ATOM
      1 O2         -0.0130    0.0140   -0.1740 o         1 TYF     -0.832300
      2 C1          1.2070    0.2680    0.0470 c         1 TYF      0.893600
      3 O1          2.0240    0.7080   -0.8040 o         1 TYF     -0.832300
      4 C2          1.7140    0.0090    1.4940 c3        1 TYF      0.015100
      5 C3          2.7980   -1.0650    1.4680 c3        1 TYF     -0.052100
      6 O3          6.2100   -1.2070    5.9870 oh        1 TYF     -0.517100
      7 C4          3.6780   -1.0750    2.6670 ca        1 TYF     -0.071300
      8 O4          0.6560   -0.3870    2.3530 oh        1 TYF     -0.655800
      9 C5          3.1310   -1.0110    3.9560 ca        1 TYF     -0.100000
     10 C6          3.9500   -1.0510    5.0810 ca        1 TYF     -0.191500
     11 C7          5.3380   -1.1550    4.9150 ca        1 TYF      0.088100
     12 C8          5.9060   -1.2140    3.6350 ca        1 TYF     -0.191500
     13 C9          5.0680   -1.1720    2.5240 ca        1 TYF     -0.100000
     14 H2          2.1240    0.9640    1.9200 h1        1 TYF      0.042700
     15 H3          2.3050   -2.0710    1.3810 hc        1 TYF      0.060700
     16 H3A         3.4110   -0.8970    0.5410 hc        1 TYF      0.060700
     17 HO3         5.6810   -1.1180    6.7920 ho        1 TYF      0.405000
     18 HO4        -0.1170   -0.5620    1.7900 ho        1 TYF      0.428000
     19 H5          2.0360   -0.9170    4.0640 ha        1 TYF      0.151000
     20 H6          3.5160   -0.9980    6.0880 ha        1 TYF      0.125000
     21 H8          6.9950   -1.2880    3.5260 ha        1 TYF      0.125000
     22 H9          5.5070   -1.2090    1.5150 ha        1 TYF      0.151000
@<TRIPOS>BOND
     1    1    2 1   
     2    2    3 1   
     3    2    4 1   
     4    4    5 1   
     5    4    8 1   
     6    4   14 1   
     7    5    7 1   
     8    5   15 1   
     9    5   16 1   
    10    6   11 1   
    11    6   17 1   
    12    7    9 ar  
    13    7   13 ar  
    14    8   18 1   
    15    9   10 ar  
    16    9   19 1   
    17   10   11 ar  
    18   10   20 1   
    19   11   12 ar  
    20   12   13 ar  
    21   12   21 1   
    22   13   22 1   
@<TRIPOS>SUBSTRUCTURE
     1 TYF         1 TEMP              0 ****  ****    0 ROOT
