@<TRIPOS>MOLECULE
molecule
   22    22     1     0     0
SMALL
bcc


@<TRIPOS>ATOM
      1 O2           0.0000     0.0000     0.0000 o          1 TYF      -0.839300
      2 C1           1.2080     0.0000     0.0000 c          1 TYF       0.867600
      3 O1           1.8800     0.0060    -1.1620 o          1 TYF      -0.839300
      4 C2           1.9620     0.0000     1.3060 c3         1 TYF       0.044100
      5 C3           2.7440    -1.3070     1.4420 c3         1 TYF      -0.021100
      6 O3           5.9170    -1.1180     6.0930 oh         1 TYF      -0.534100
      7 C4           3.5940    -1.2570     2.6860 ca         1 TYF      -0.059300
      8 O4           1.0370     0.1170     2.3890 oh         1 TYF      -0.618800
      9 C5           3.0820    -1.7070     3.8890 ca         1 TYF      -0.112500
     10 C6           3.8570    -1.6620     5.0310 ca         1 TYF      -0.161000
     11 C7           5.1520    -1.1650     4.9710 ca         1 TYF       0.069100
     12 C8           5.6620    -0.7140     3.7620 ca         1 TYF      -0.161000
     13 C9           4.8850    -0.7660     2.6220 ca         1 TYF      -0.112500
     14 H2           2.6500     0.8370     1.3260 h1         1 TYF       0.018700
     15 H3           2.0510    -2.1370     1.5110 hc         1 TYF       0.066200
     16 H3A          3.3810    -1.4390     0.5750 hc         1 TYF       0.066200
     17 HO3          5.7870    -0.2910     6.5270 ho         1 TYF       0.405000
     18 HO4          0.7820     1.0190     2.4890 ho         1 TYF       0.390000
     19 H5           2.0720    -2.0950     3.9360 ha         1 TYF       0.141500
     20 H6           3.4550    -2.0140     5.9740 ha         1 TYF       0.123500
     21 H8           6.6740    -0.3290     3.7110 ha         1 TYF       0.123500
     22 H9           5.2830    -0.4140     1.6780 ha         1 TYF       0.141500
@<TRIPOS>BOND
     1     2     1 1
     2     4     2 1
     3     2     3 1
     4     8     4 1
     5     4     5 1
     6     4    14 1
     7     7     5 1
     8     5    15 1
     9     5    16 1
    10     6    11 1
    11     6    17 1
    12    13     7 ar
    13     9     7 ar
    14     8    18 1
    15    10     9 ar
    16     9    19 1
    17    11    10 ar
    18    10    20 1
    19    11    12 ar
    20    12    13 ar
    21    12    21 1
    22    13    22 1
@<TRIPOS>SUBSTRUCTURE
     1 TYF         1 TEMP              0 ****  ****    0 ROOT
