@<TRIPOS>MOLECULE
molecule
   20    20     1     0     0
SMALL
bcc


@<TRIPOS>ATOM
      1 C1           0.0000     0.0000     0.0000 ca         1 TYL       0.048600
      2 C2           1.3870     0.0000     0.0000 ca         1 TYL      -0.129500
      3 C3           2.0770     0.0000     1.1960 ca         1 TYL      -0.137000
      4 C4           1.3830     0.0000     2.3970 ca         1 TYL       0.089100
      5 C5          -0.0030     0.0000     2.3970 ca         1 TYL      -0.137000
      6 C6          -0.6940     0.0070     1.2010 ca         1 TYL      -0.129500
      7 N           -0.7000     0.0010    -1.2140 ns         1 TYL      -0.484100
      8 C           -0.2340    -0.7060    -2.2610 c          1 TYL       0.656100
      9 CM          -0.9150    -0.6060    -3.6020 c3         1 TYL      -0.171100
     10 O4           2.0630    -0.0000     3.5750 oh         1 TYL      -0.523100
     11 O            0.7340    -1.4230    -2.1250 o          1 TYL      -0.593100
     12 H2           1.9290    -0.0030    -0.9380 ha         1 TYL       0.145000
     13 H3           3.1610     0.0000     1.1960 ha         1 TYL       0.143000
     14 H5          -0.5450     0.0030     3.3350 ha         1 TYL       0.143000
     15 H6          -1.7780     0.0070     1.2020 ha         1 TYL       0.145000
     16 HN          -1.5390     0.5400    -1.3070 hn         1 TYL       0.323500
     17 HM1         -0.2970    -1.0770    -4.3570 hc         1 TYL       0.063367
     18 HM2         -1.8750    -1.1070    -3.5570 hc         1 TYL       0.063367
     19 HM3         -1.0640     0.4360    -3.8550 hc         1 TYL       0.063367
     20 HO4          2.2830    -0.8870     3.8110 ho         1 TYL       0.418000
@<TRIPOS>BOND
     1     1     2 ar
     2     1     6 ar
     3     1     7 1
     4     2     3 ar
     5     2    12 1
     6     3     4 ar
     7     3    13 1
     8     4     5 ar
     9     4    10 1
    10     5     6 ar
    11     5    14 1
    12     6    15 1
    13     7     8 1
    14     7    16 1
    15     8     9 1
    16     8    11 2
    17     9    17 1
    18     9    18 1
    19     9    19 1
    20    10    20 1
@<TRIPOS>SUBSTRUCTURE
     1 TYL         1 TEMP              0 ****  ****    0 ROOT
