@<TRIPOS>MOLECULE
TYM
   61    65     1     0     0
SMALL
bcc


@<TRIPOS>ATOM
      1 P            0.0000     0.0000     0.0000 p5         1 TYM       0.899800
      2 O1P          1.6100     0.0000     0.0000 o          1 TYM      -0.623000
      3 O2P         -0.4920     0.0000     1.3950 o          1 TYM      -0.623000
      4 O5'         -0.5360    -1.3140    -0.7600 os         1 TYM      -0.455200
      5 C5'         -0.0280    -2.4410    -0.0430 c3         1 TYM       0.247400
      6 C4'         -0.5040    -3.7290    -0.7160 c3         1 TYM       0.146100
      7 O4'          0.0040    -3.7960    -2.0590 os         1 TYM      -0.381600
      8 C1'          0.2590    -5.1870    -2.3450 c3         1 TYM       0.141800
      9 N9           1.2160    -5.3210    -3.4440 na         1 TYM       0.211000
     10 C4           1.2980    -6.3670    -4.3280 ca         1 TYM       0.228800
     11 N3           0.6220    -7.4970    -4.5100 nb         1 TYM      -0.601000
     12 C2           0.9430    -8.3220    -5.4840 ca         1 TYM       0.625900
     13 N1           1.9330    -8.0770    -6.3230 nb         1 TYM      -0.661000
     14 C6           2.6610    -6.9710    -6.2230 ca         1 TYM       0.590200
     15 N6           3.6970    -6.7230    -7.1060 nv         1 TYM      -0.644500
     16 C5           2.3560    -6.0580    -5.1980 ca         1 TYM      -0.185200
     17 N7           2.8630    -4.8660    -4.8020 nc         1 TYM      -0.509100
     18 C8           2.1960    -4.4320    -3.7730 cd         1 TYM       0.280700
     19 C2'          0.8620    -5.7240    -1.0220 c3         1 TYM       0.126100
     20 O2'          0.6560    -7.1320    -0.9010 oh         1 TYM      -0.546800
     21 C3'          0.0430    -4.9520     0.0460 c3         1 TYM       0.130100
     22 O3'         -1.0250    -5.7630     0.5390 oh         1 TYM      -0.558800
     23 NH3         -0.8770     4.8570    -0.0400 nz         1 TYM       0.083400
     24 CA          -0.7140     3.7650    -1.0090 c3         1 TYM      -0.169500
     25 CB           0.2940     4.1810    -2.0820 c3         1 TYM       0.083800
     26 CG          -0.2090     5.4110    -2.7920 cc         1 TYM      -0.227400
     27 CD2         -1.0480     5.4440    -3.9910 ca         1 TYM      -0.087800
     28 CE2         -1.2600     6.8050    -4.2810 ca         1 TYM      -0.230200
     29 CE3         -1.6250     4.4620    -4.7980 ca         1 TYM      -0.049000
     30 CD1          0.0340     6.6870    -2.4490 cd         1 TYM      -0.286100
     31 NE1         -0.5860     7.5320    -3.3260 na         1 TYM       0.382600
     32 CZ2         -2.0360     7.1540    -5.3800 ca         1 TYM      -0.097000
     33 CZ3         -2.3850     4.8290    -5.8740 ca         1 TYM      -0.106000
     34 CH2         -2.5920     6.1680    -6.1660 ca         1 TYM      -0.069000
     35 C           -0.2120     2.5340    -0.2990 c          1 TYM       0.762100
     36 O            0.4830     2.6440     0.6830 o          1 TYM      -0.554000
     37 OPP         -0.5350     1.3150    -0.7580 os         1 TYM      -0.423500
     38 H5'1         1.0540    -2.4120    -0.0430 h1         1 TYM       0.019700
     39 H5'2        -0.3900    -2.4120     0.9780 h1         1 TYM       0.019700
     40 H4'C        -1.5870    -3.7630    -0.7320 h1         1 TYM       0.040700
     41 H1'C        -0.6660    -5.7020    -2.5740 h2         1 TYM       0.068700
     42 HC2          0.3740    -9.2360    -5.6000 h5         1 TYM      -0.003900
     43 HN61         3.5220    -6.2250    -7.9570 hn         1 TYM       0.278800
     44 HN62         4.6250    -7.0270    -6.8870 hn         1 TYM       0.278800
     45 HC8          2.3910    -3.5010    -3.2540 h5         1 TYM       0.049800
     46 H2'C         1.9140    -5.4740    -0.9520 h1         1 TYM       0.022700
     47 H2'O         1.3870    -7.5190    -0.4490 ho         1 TYM       0.387000
     48 H3'C         0.6880    -4.6320     0.8550 h1         1 TYM       0.020700
     49 H3'O        -0.9750    -5.8100     1.4790 ho         1 TYM       0.389000
     50 HCA         -1.6690     3.5500    -1.4740 hx         1 TYM       0.099700
     51 HCB1         1.2480     4.3980    -1.6160 hc         1 TYM       0.059200
     52 HCB2         0.4150     3.3760    -2.7960 hc         1 TYM       0.059200
     53 HE3C        -1.4680     3.4140    -4.5760 ha         1 TYM       0.113000
     54 HD1C         0.6340     7.0000    -1.6030 h4         1 TYM       0.133000
     55 HE1N        -0.5540     8.5320    -3.2810 hn         1 TYM       0.120700
     56 HZ2C        -2.2040     8.1980    -5.6170 ha         1 TYM       0.106000
     57 HZ3C        -2.8300     4.0660    -6.5020 ha         1 TYM       0.113000
     58 HH2C        -3.1970     6.4430    -7.0220 ha         1 TYM       0.109000
     59 HH32         0.0200     5.2340     0.1910 hn         1 TYM       0.221133
     60 HH31        -1.4480     5.5750    -0.4400 hn         1 TYM       0.221133
     61 HH33        -1.3150     4.5050     0.7880 hn         1 TYM       0.221133
@<TRIPOS>BOND
     1     1     2 1   
     2     1     3 1   
     3     1     4 1   
     4     1    37 1   
     5     4     5 1   
     6     5     6 1   
     7     5    38 1   
     8     5    39 1   
     9     6     7 1   
    10     6    21 1   
    11     6    40 1   
    12     7     8 1   
    13     8     9 1   
    14     8    19 1   
    15     8    41 1   
    16     9    10 1   
    17     9    18 1   
    18    10    11 ar  
    19    10    16 ar  
    20    11    12 ar  
    21    12    13 ar  
    22    12    42 1   
    23    13    14 ar  
    24    14    15 1   
    25    14    16 ar  
    26    15    43 1   
    27    15    44 1   
    28    16    17 1   
    29    17    18 2   
    30    18    45 1   
    31    19    20 1   
    32    19    21 1   
    33    19    46 1   
    34    20    47 1   
    35    21    22 1   
    36    21    48 1   
    37    22    49 1   
    38    23    24 1   
    39    23    59 1   
    40    23    60 1   
    41    23    61 1   
    42    24    25 1   
    43    24    35 1   
    44    24    50 1   
    45    25    26 1   
    46    25    51 1   
    47    25    52 1   
    48    26    27 1   
    49    26    30 2   
    50    27    28 ar  
    51    27    29 ar  
    52    28    31 1   
    53    28    32 ar  
    54    29    33 ar  
    55    29    53 1   
    56    30    31 1   
    57    30    54 1   
    58    31    55 1   
    59    32    34 ar  
    60    32    56 1   
    61    33    34 ar  
    62    33    57 1   
    63    34    58 1   
    64    35    36 2   
    65    35    37 1   
@<TRIPOS>SUBSTRUCTURE
     1 TYM         1 TEMP              0 ****  ****    0 ROOT
