@<TRIPOS>MOLECULE
TYP
   35    37     1     0     0
SMALL
bcc


@<TRIPOS>ATOM
      1 N            0.0000     0.0000     0.0000 ns         1 TYP      -0.207900
      2 CA           1.4620     0.0000     0.0000 c3         1 TYP      -0.047300
      3 C            1.9730     0.0000     1.4230 c          1 TYP       0.634500
      4 O            3.0000     0.5720     1.7190 o          1 TYP      -0.663500
      5 CB           1.9710     1.2480    -0.7220 c3         1 TYP       0.035900
      6 CG           1.4660     1.2460    -2.1420 ca         1 TYP      -0.126300
      7 CD1          0.2580     1.8460    -2.4450 ca         1 TYP      -0.080000
      8 CE1         -0.2070     1.8470    -3.7460 ca         1 TYP      -0.131500
      9 CE2          1.7480     0.6410    -4.4410 ca         1 TYP      -0.131500
     10 CD2          2.2120     0.6460    -3.1400 ca         1 TYP      -0.080000
     11 CZ           0.5390     1.2460    -4.7480 ca         1 TYP       0.128100
     12 OH           0.0830     1.2460    -6.0290 oh         1 TYP      -0.499100
     13 NP           1.2400    -0.6430     2.3550 n          1 TYP      -0.165800
     14 CAP          0.0150    -1.4050     2.0320 c3         1 TYP      -0.049300
     15 CP          -0.7060    -0.6660     0.9340 c          1 TYP       0.604500
     16 OP          -1.9190    -0.6720     0.8900 o          1 TYP      -0.670500
     17 CBP         -0.8310    -1.3720     3.3260 c3         1 TYP      -0.020400
     18 CGP          0.2670    -1.4930     4.4180 c3         1 TYP      -0.040400
     19 CDP          1.4450    -0.6980     3.8160 c3         1 TYP       0.059000
     20 H           -0.4880     0.5070    -0.7120 hn         1 TYP       0.208500
     21 HA           1.8190    -0.8870    -0.5090 h1         1 TYP       0.044700
     22 HBC1         3.0540     1.2470    -0.7240 hc         1 TYP       0.043700
     23 HBC2         1.6110     2.1330    -0.2120 hc         1 TYP       0.043700
     24 HD1         -0.3250     2.3160    -1.6620 ha         1 TYP       0.110000
     25 HE1         -1.1530     2.3190    -3.9830 ha         1 TYP       0.116500
     26 HE2          2.3320     0.1700    -5.2230 ha         1 TYP       0.116500
     27 HD2          3.1560     0.1740    -2.9000 ha         1 TYP       0.110000
     28 HH          -0.4430     0.4770    -6.1750 ho         1 TYP       0.404000
     29 HAP          0.2480    -2.4220     1.7380 h1         1 TYP       0.051700
     30 HBP1        -1.5100    -2.2150     3.3660 hc         1 TYP       0.039200
     31 HBP2        -1.3620    -0.4320     3.4160 hc         1 TYP       0.039200
     32 HGP1        -0.0810    -0.9400     5.2820 hc         1 TYP       0.037200
     33 HGP2         0.5690    -2.5330     4.4520 hc         1 TYP       0.037200
     34 HDP1         2.3790    -1.2020     4.0360 h1         1 TYP       0.024200
     35 HDP2         1.4570     0.3050     4.2230 h1         1 TYP       0.024200
@<TRIPOS>BOND
     1     1     2 1   
     2     1    15 1   
     3     1    20 1   
     4     2     3 1   
     5     2     5 1   
     6     2    21 1   
     7     3     4 2   
     8     3    13 1   
     9     5     6 1   
    10     5    22 1   
    11     5    23 1   
    12     6     7 ar  
    13     6    10 ar  
    14     7     8 ar  
    15     7    24 1   
    16     8    11 ar  
    17     8    25 1   
    18     9    10 ar  
    19     9    11 ar  
    20     9    26 1   
    21    10    27 1   
    22    11    12 1   
    23    12    28 1   
    24    13    14 1   
    25    13    19 1   
    26    14    15 1   
    27    14    17 1   
    28    14    29 1   
    29    15    16 2   
    30    17    18 1   
    31    17    30 1   
    32    17    31 1   
    33    18    19 1   
    34    18    32 1   
    35    18    33 1   
    36    19    34 1   
    37    19    35 1   
@<TRIPOS>SUBSTRUCTURE
     1 TYP         1 TEMP              0 ****  ****    0 ROOT
