@<TRIPOS>MOLECULE
TYZ
   21    21     1     0     0
SMALL
bcc


@<TRIPOS>ATOM
      1 O1           0.0000     0.0000     0.0000 o          1 TYZ      -0.889300
      2 O2           1.9580     0.0010    -1.1520 o          1 TYZ      -0.889300
      3 C7           1.2350     0.0000     0.0000 c          1 TYZ       0.970200
      4 C3           2.0780     0.0000     1.1860 ca         1 TYZ      -0.117600
      5 C4           1.4980     0.0000     2.4540 ca         1 TYZ      -0.043000
      6 C5           2.3060     0.0030     3.5900 ca         1 TYZ      -0.184500
      7 C6           3.6960     0.0040     3.4590 ca         1 TYZ      -0.119400
      8 C1           4.2750     0.0040     2.1900 ca         1 TYZ      -0.184500
      9 C2           3.4670     0.0020     1.0530 ca         1 TYZ      -0.043000
     10 C8           5.9030     0.0090     4.6620 c          1 TYZ       0.578100
     11 N            4.5030     0.0070     4.5960 ns         1 TYZ      -0.043100
     12 O4           6.6940     0.0130     3.7240 o          1 TYZ      -0.620100
     13 C9           6.3950     0.0120     6.0870 c3         1 TYZ      -0.095100
     14 H4           0.4200    -0.0010     2.5560 ha         1 TYZ       0.128000
     15 H5           1.8560     0.0030     4.5750 ha         1 TYZ       0.110500
     16 HA           5.3530     0.0050     2.0880 ha         1 TYZ       0.110500
     17 H2           3.9170     0.0010     0.0680 ha         1 TYZ       0.128000
     18 HN           4.0230     0.0080     5.4740 hn         1 TYZ       0.149500
     19 H9C1         6.0300     0.8970     6.5940 hc         1 TYZ       0.018700
     20 H9C2         7.4790     0.0130     6.0950 hc         1 TYZ       0.018700
     21 H9C3         6.0310    -0.8720     6.5970 hc         1 TYZ       0.018700
@<TRIPOS>BOND
     1     1     3 1   
     2     2     3 1   
     3     3     4 1   
     4     4     5 ar  
     5     4     9 ar  
     6     5     6 ar  
     7     5    14 1   
     8     6     7 ar  
     9     6    15 1   
    10     7     8 ar  
    11     7    11 1   
    12     8     9 ar  
    13     8    16 1   
    14     9    17 1   
    15    10    11 1   
    16    10    12 2   
    17    10    13 1   
    18    11    18 1   
    19    13    19 1   
    20    13    20 1   
    21    13    21 1   
@<TRIPOS>SUBSTRUCTURE
     1 TYZ         1 TEMP              0 ****  ****    0 ROOT
