@<TRIPOS>MOLECULE
TZ0
   53    54     1     0     0
SMALL
bcc


@<TRIPOS>ATOM
      1 C0N          0.0000     0.0000     0.0000 c3         1 TZ0       0.035000
      2 O01          1.4290     0.0000     0.0000 os         1 TZ0      -0.190500
      3 C0E          2.0460     0.0000     1.2100 ca         1 TZ0       0.133500
      4 C0O          1.2910    -0.0070     2.3710 ca         1 TZ0      -0.250000
      5 C0C          3.4330     0.0010     1.2820 ca         1 TZ0      -0.192000
      6 C0D          4.0680     0.0000     2.5150 ca         1 TZ0       0.133500
      7 O02          5.4260     0.0010     2.5780 os         1 TZ0      -0.190500
      8 C0U          6.0150     0.0010     3.8810 c3         1 TZ0       0.035000
      9 C0R          3.3220    -0.0010     3.6810 ca         1 TZ0      -0.250000
     10 C0J          1.9270    -0.0070     3.6150 ca         1 TZ0       0.166000
     11 C0S          1.1500    -0.0150     4.8190 c1         1 TZ0      -0.143000
     12 C0H          0.4980    -0.0270     5.7950 c1         1 TZ0      -0.122000
     13 C0G         -0.0120     0.4650     7.1880 c2         1 TZ0       0.132000
     14 N09         -0.9510     0.3890     7.4190 n2         1 TZ0       0.014000
     15 C0A          0.6900     1.1510     8.5130 c2         1 TZ0      -0.613000
     16 C0F          2.3080     1.4890     8.6090 c2         1 TZ0      -0.067000
     17 N05          3.3200     1.4540     8.1080 n8         1 TZ0       0.501000
     18 N06          2.2620     2.0000     9.8460 n2         1 TZ0      -0.156000
     19 C0L          1.4210     2.2090    10.7100 c1         1 TZ0       0.163000
     20 N08          0.2430     0.7420    10.6330 n1         1 TZ0      -0.363000
     21 C0B         -0.2230     0.6660     9.5600 c2         1 TZ0       0.164000
     22 N04         -1.0910     0.9280     8.7650 na         1 TZ0       0.101000
     23 C0K         -2.6390     0.9900     9.5910 c3         1 TZ0      -0.085000
     24 C0I         -3.6720     0.0200     9.7830 c3         1 TZ0      -0.015000
     25 C0Q         -2.9070     2.3710     9.0830 c2         1 TZ0      -0.088000
     26 C0T         -4.7230     1.8400     9.0190 c2         1 TZ0      -0.165000
     27 N07         -4.8610     0.6430     9.4090 n          1 TZ0      -0.095000
     28 C0P         -6.3530     0.0830     8.7490 c2         1 TZ0       0.307000
     29 O03         -6.2890    -1.1960     8.6730 o          1 TZ0      -0.338000
     30 C0M         -7.3780     1.1020     8.7390 c2         1 TZ0      -0.159000
     31 C0V         -8.3650     0.3990     8.0170 c2         1 TZ0      -0.083000
     32 H1          -0.5420     0.7380     0.5800 h1         1 TZ0       0.046500
     33 H2          -0.1120    -0.0500    -1.0760 h1         1 TZ0       0.046500
     34 H3          -0.1710    -1.0570     0.1650 h1         1 TZ0       0.046500
     35 H4           0.2110     0.0160     2.2910 ha         1 TZ0       0.128000
     36 H5           4.2590    -0.2010     0.6110 ha         1 TZ0       0.138000
     37 H6           6.0780    -1.0550     4.1160 h1         1 TZ0       0.046500
     38 H7           7.0870     0.1270     3.7870 h1         1 TZ0       0.046500
     39 H8           5.4440     0.5580     4.6140 h1         1 TZ0       0.046500
     40 H9           4.0010     0.0720     4.5230 ha         1 TZ0       0.128000
     41 H10          3.4980     1.1800     7.1620 hn         1 TZ0       0.035500
     42 H11          4.0820     1.8880     8.5900 hn         1 TZ0       0.035500
     43 H12          1.6260     2.5730    11.7090 ha         1 TZ0       0.147000
     44 H13         -2.1830     1.1900    10.5530 h1         1 TZ0       0.073000
     45 H14         -3.4580    -0.5410     8.8810 h1         1 TZ0       0.064000
     46 H15         -3.8640    -0.7590    10.5100 h1         1 TZ0       0.064000
     47 H16         -2.8730     3.0870     9.8960 ha         1 TZ0       0.094000
     48 H17         -2.8230     2.5000     8.0110 ha         1 TZ0       0.094000
     49 H18         -5.1870     2.3230     9.8710 h4         1 TZ0       0.024500
     50 H19         -5.1360     2.5490     8.3110 h4         1 TZ0       0.024500
     51 H20         -7.4310     2.1810     8.6560 ha         1 TZ0       0.159000
     52 H21         -8.5290    -0.6650     7.8950 ha         1 TZ0       0.098500
     53 H22         -9.1430     1.1520     7.9810 ha         1 TZ0       0.098500
@<TRIPOS>BOND
     1     1     2 1   
     2     1    32 1   
     3     1    33 1   
     4     1    34 1   
     5     2     3 1   
     6     3     4 1   
     7     3     5 1   
     8     4    10 1   
     9     4    35 1   
    10     5     6 1   
    11     5    36 1   
    12     6     7 1   
    13     6     9 1   
    14     7     8 1   
    15     8    37 1   
    16     8    38 1   
    17     8    39 1   
    18     9    10 1   
    19     9    40 1   
    20    10    11 1   
    21    11    12 1   
    22    12    13 1   
    23    13    14 1   
    24    13    15 1   
    25    14    22 1   
    26    15    16 1   
    27    15    21 1   
    28    16    17 1   
    29    16    18 1   
    30    17    41 1   
    31    17    42 1   
    32    18    19 1   
    33    19    43 1   
    34    20    21 1   
    35    21    22 1   
    36    22    23 1   
    37    23    24 1   
    38    23    25 1   
    39    23    44 1   
    40    24    27 1   
    41    24    45 1   
    42    24    46 1   
    43    25    47 1   
    44    25    48 1   
    45    26    27 1   
    46    26    49 1   
    47    26    50 1   
    48    27    28 1   
    49    28    29 1   
    50    28    30 1   
    51    30    31 1   
    52    30    51 1   
    53    31    52 1   
    54    31    53 1   
@<TRIPOS>SUBSTRUCTURE
     1 TZ0         1 TEMP              0 ****  ****    0 ROOT
