@<TRIPOS>MOLECULE
molecule
   53    56     1     0     0
SMALL
bcc


@<TRIPOS>ATOM
      1 C0N          0.0000     0.0000     0.0000 c3         1 TZ0       0.122200
      2 O01          1.4290     0.0000     0.0000 os         1 TZ0      -0.310400
      3 C0E          2.0460     0.0000     1.2100 ca         1 TZ0       0.179600
      4 C0O          1.2910    -0.0070     2.3710 ca         1 TZ0      -0.264500
      5 C0C          3.4330     0.0010     1.2820 ca         1 TZ0      -0.211000
      6 C0D          4.0680     0.0000     2.5150 ca         1 TZ0       0.179600
      7 O02          5.4260     0.0010     2.5780 os         1 TZ0      -0.310400
      8 C0U          6.0150     0.0010     3.8810 c3         1 TZ0       0.122200
      9 C0R          3.3220    -0.0010     3.6810 ca         1 TZ0      -0.264500
     10 C0J          1.9270    -0.0070     3.6150 ca         1 TZ0       0.129000
     11 C0S          1.1500    -0.0150     4.8190 cg         1 TZ0      -0.124000
     12 C0H          0.5180    -0.0010     5.8080 ch         1 TZ0      -0.111200
     13 C0G         -0.4390    -0.3440     7.1370 cd         1 TZ0       0.422800
     14 N09         -1.6760     0.2410     7.2470 nc         1 TZ0      -0.439100
     15 C0A         -0.1350    -1.2010     8.2230 ca         1 TZ0      -0.497500
     16 C0F          1.1470    -2.0690     8.5200 ca         1 TZ0       0.853200
     17 N05          2.3020    -2.0550     7.9030 nv         1 TZ0      -0.966500
     18 N06          1.1510    -2.6840     9.4770 nb         1 TZ0      -0.883000
     19 C0L          0.0270    -2.7090    10.4460 ca         1 TZ0       0.829900
     20 N08         -1.3930    -2.3950     9.5420 nb         1 TZ0      -0.748000
     21 C0B         -1.4050    -1.6820     8.7690 ca         1 TZ0       0.562800
     22 N04         -1.8520    -0.3690     8.3460 na         1 TZ0      -0.028800
     23 C0K         -3.4330    -0.0310     9.1250 c3         1 TZ0      -0.039000
     24 C0I         -4.7130     0.2700     8.2460 c3         1 TZ0       0.086000
     25 C0Q         -3.2350     1.1850    10.0420 c3         1 TZ0      -0.066400
     26 C0T         -4.1170     1.9970     9.8110 c3         1 TZ0      -0.087000
     27 N07         -5.0440     1.5640     8.7710 n          1 TZ0      -0.458800
     28 C0P         -6.0370     2.2780     8.0820 c          1 TZ0       0.651300
     29 O03         -6.6060     1.8080     7.0790 o          1 TZ0      -0.599100
     30 C0M         -6.4770     3.5050     8.5520 ce         1 TZ0      -0.278200
     31 C0V         -7.6510     4.1940     7.8900 c2         1 TZ0      -0.074000
     32 H1          -0.4820     0.6000     0.7630 h1         1 TZ0       0.045533
     33 H2          -0.1820     0.1770    -1.0530 h1         1 TZ0       0.045533
     34 H3          -0.3580    -0.9830     0.2800 h1         1 TZ0       0.045533
     35 H4           0.6220     0.8450     2.3880 ha         1 TZ0       0.143500
     36 H5           3.8420     0.5530     0.4450 ha         1 TZ0       0.154000
     37 H6           5.7450    -0.9150     4.3920 h1         1 TZ0       0.045533
     38 H7           7.0970    -0.0380     3.8650 h1         1 TZ0       0.045533
     39 H8           5.7390     0.8090     4.5480 h1         1 TZ0       0.045533
     40 H9           4.0320    -0.2580     4.4580 ha         1 TZ0       0.143500
     41 H10          2.9740    -1.5110     7.3990 hn         1 TZ0       0.413800
     42 H11          3.0590    -2.3840     8.4690 hn         1 TZ0       0.413800
     43 H12          0.1810    -3.3760    11.2860 h5         1 TZ0       0.047100
     44 H13         -3.3470    -0.9760     9.6460 h1         1 TZ0       0.086700
     45 H14         -4.5100     0.1230     7.1920 h1         1 TZ0       0.075700
     46 H15         -5.2430    -0.6180     8.5690 h1         1 TZ0       0.075700
     47 H16         -2.8960     0.9140    11.0340 hc         1 TZ0       0.060700
     48 H17         -2.3900     1.8020     9.7630 hc         1 TZ0       0.060700
     49 H18         -5.1900     1.9150     9.9360 h1         1 TZ0       0.141700
     50 H19         -3.6120     2.9490     9.9230 h1         1 TZ0       0.141700
     51 H20         -5.9140     4.0150     9.3240 ha         1 TZ0       0.136000
     52 H21         -7.9680     5.0060     8.5320 ha         1 TZ0       0.128500
     53 H22         -8.3930     3.7300     7.2520 ha         1 TZ0       0.128500
@<TRIPOS>BOND
     1     1     2 1
     2     2     3 1
     3     3     5 ar
     4     3     4 ar
     5     5     6 ar
     6     4    10 ar
     7     8     7 1
     8     6     7 1
     9     6     9 ar
    10    29    28 2
    11    10     9 ar
    12    10    11 1
    13    26    27 1
    14    26    25 1
    15    11    12 3
    16    28    27 1
    17    28    30 1
    18    31    30 2
    19    12    13 1
    20    27    24 1
    21    25    23 1
    22    14    13 2
    23    14    22 1
    24    13    15 1
    25    22    23 1
    26    22    21 1
    27    23    24 1
    28    15    21 ar
    29    15    16 ar
    30    17    16 1
    31    21    20 ar
    32    16    18 ar
    33    20    19 ar
    34    18    19 ar
    35     1    32 1
    36     1    33 1
    37     1    34 1
    38     4    35 1
    39     5    36 1
    40     8    37 1
    41     8    38 1
    42     8    39 1
    43     9    40 1
    44    17    41 1
    45    17    42 1
    46    19    43 1
    47    23    44 1
    48    24    45 1
    49    24    46 1
    50    25    47 1
    51    25    48 1
    52    26    49 1
    53    26    50 1
    54    30    51 1
    55    31    52 1
    56    31    53 1
@<TRIPOS>SUBSTRUCTURE
     1 TZ0         1 TEMP              0 ****  ****    0 ROOT
