@<TRIPOS>MOLECULE
molecule
   34    37     1     0     0
SMALL
bcc


@<TRIPOS>ATOM
      1 C1           0.0000     0.0000     0.0000 ca         1 TZ1      -0.151300
      2 N1           2.0940     0.0020    -1.1470 nb         1 TZ1      -0.652000
      3 O1           3.0830     6.2210     3.2720 o          1 TZ1      -0.514100
      4 S1           4.4220     0.0000     2.7400 ss         1 TZ1      -0.193200
      5 Cl1         -2.4120     0.0040     1.1760 cl         1 TZ1      -0.102400
      6 C2           1.4050     0.0000     0.0000 ca         1 TZ1       0.420600
      7 N2           3.5890     3.7740     3.0190 nc         1 TZ1      -0.319000
      8 S2           4.7730     2.4070     4.7320 ss         1 TZ1      -0.316800
      9 C3           2.0930     0.0000     1.2370 ca         1 TZ1      -0.108300
     10 N3           3.6440     2.6160     2.5210 nc         1 TZ1      -0.297000
     11 S3           4.3610     7.7490     6.7060 ss         1 TZ1      -0.112800
     12 C4           1.3670    -0.0020     2.4350 ca         1 TZ1      -0.106000
     13 N4           4.1510     5.1510     4.9010 ns         1 TZ1      -0.523400
     14 C5           0.0050    -0.0020     2.3990 ca         1 TZ1      -0.109000
     15 C6          -0.6760    -0.0020     1.1830 ca         1 TZ1       0.035400
     16 C7           3.4070     0.0040    -1.1640 ca         1 TZ1       0.422200
     17 C8           4.1540     0.0020     0.0060 ca         1 TZ1      -0.181300
     18 C9           3.5090     0.0000     1.2340 ca         1 TZ1       0.025900
     19 C10          4.2230     1.6830     3.2190 cd         1 TZ1       0.482700
     20 C11          4.1140     3.9530     4.1940 cd         1 TZ1       0.551300
     21 C12          3.6070     6.2630     4.3700 c          1 TZ1       0.696700
     22 C13          3.6450     7.5250     5.1150 cd         1 TZ1      -0.129700
     23 C14          3.1290     8.7150     4.6850 cc         1 TZ1      -0.064000
     24 C15          3.3040     9.7400     5.5860 cc         1 TZ1      -0.173000
     25 C16          3.9390     9.4030     6.7140 cd         1 TZ1      -0.073100
     26 H1          -0.5420    -0.0900    -0.9340 ha         1 TZ1       0.164000
     27 H4           1.8860    -0.0010     3.3860 ha         1 TZ1       0.151000
     28 HN4          4.5820     5.1860     5.8030 hn         1 TZ1       0.338500
     29 H5          -0.5550    -0.0030     3.3260 ha         1 TZ1       0.146000
     30 H7           3.9210     0.0050    -2.1170 h4         1 TZ1       0.030100
     31 H8           5.2370     0.0030    -0.0400 ha         1 TZ1       0.151000
     32 H14          2.6330     8.8400     3.7300 ha         1 TZ1       0.177000
     33 H15          2.9520    10.7470     5.3960 ha         1 TZ1       0.158000
     34 H16          4.1570    10.0880     7.5240 h4         1 TZ1       0.177000
@<TRIPOS>BOND
     1     6     1 ar
     2     1    15 ar
     3     1    26 1
     4    16     2 ar
     5     2     6 ar
     6    21     3 2
     7    19     4 1
     8    18     4 1
     9    15     5 1
    10     6     9 ar
    11     7    10 1
    12     7    20 2
    13    20     8 1
    14    19     8 1
    15    18     9 ar
    16     9    12 ar
    17    10    19 2
    18    25    11 1
    19    22    11 1
    20    12    14 ar
    21    12    27 1
    22    13    20 1
    23    13    21 1
    24    13    28 1
    25    15    14 ar
    26    14    29 1
    27    16    17 ar
    28    16    30 1
    29    17    18 ar
    30    17    31 1
    31    22    21 1
    32    23    22 2
    33    24    23 1
    34    23    32 1
    35    24    25 2
    36    24    33 1
    37    25    34 1
@<TRIPOS>SUBSTRUCTURE
     1 TZ1         1 TEMP              0 ****  ****    0 ROOT
