@<TRIPOS>MOLECULE
molecule
   95   102     1     0     0
SMALL
bcc


@<TRIPOS>ATOM
      1 N3           0.0000     0.0000     0.0000 nv         1 TZ4      -0.971200
      2 C19          1.3810     0.0000     0.0000 ca         1 TZ4       0.180600
      3 C18          2.1480     0.0000     1.2020 ca         1 TZ4      -0.060000
      4 C17          3.5370    -0.0000     1.1960 ca         1 TZ4      -0.151000
      5 C16          4.3430    -0.0130     0.0050 ca         1 TZ4       0.076000
      6 C14          3.5830    -0.0110    -1.2210 ca         1 TZ4      -0.123000
      7 C15          2.1340    -0.0030    -1.1680 ca         1 TZ4      -0.099000
      8 C7           4.2670     0.0980    -2.4590 cc         1 TZ4       0.192700
      9 C8           3.4960     0.0480    -3.7440 ca         1 TZ4      -0.127000
     10 C9           3.5040    -1.1980    -4.3880 ca         1 TZ4      -0.094000
     11 C10          2.8310    -1.3800    -5.5940 ca         1 TZ4      -0.121000
     12 C11          2.1190    -0.3270    -6.1920 ca         1 TZ4      -0.091000
     13 C12          2.0900     0.9220    -5.5680 ca         1 TZ4      -0.121000
     14 C13          2.7720     1.0980    -4.3550 ca         1 TZ4      -0.094000
     15 C4           5.7980     0.0650    -0.0440 cc         1 TZ4      -0.099000
     16 C3           6.6840    -0.1440     1.0850 cc         1 TZ4      -0.042000
     17 C2           8.0670    -0.2520     0.9860 cd         1 TZ4      -0.170000
     18 C1           8.7270    -0.1760    -0.2830 cd         1 TZ4       0.241700
     19 N1          10.0970    -0.2890    -0.4330 nv         1 TZ4      -0.530100
     20 C6           6.4580     0.1530    -1.3280 cc         1 TZ4       0.068700
     21 C5           7.8850     0.0070    -1.3830 cd         1 TZ4      -0.264000
     22 N2           5.6260     0.1580    -2.4650 na         1 TZ4      -0.002100
     23 C20          6.2890     0.2900    -3.8000 c3         1 TZ4      -0.014700
     24 C21          6.7240    -0.9370    -4.6120 c3         1 TZ4      -0.088400
     25 C22          7.6190    -0.3930    -5.7410 c3         1 TZ4      -0.082400
     26 C23          8.1190    -1.4840    -6.6750 c3         1 TZ4      -0.078400
     27 C24          6.9530    -1.9310    -7.5410 c3         1 TZ4      -0.086400
     28 C25          6.8240    -1.0360    -8.7730 c3         1 TZ4      -0.100700
     29 C26          5.8480    -1.7560    -9.5940 cc         1 TZ4       0.266600
     30 N4           6.1550    -2.8680   -10.2410 nc         1 TZ4      -0.335000
     31 N5           5.0300    -3.2620   -10.8330 nd         1 TZ4      -0.210800
     32 N6           4.0500    -2.4190   -10.5590 na         1 TZ4       0.149400
     33 C27          4.5460    -1.4780    -9.7660 cd         1 TZ4      -0.302600
     34 C28          2.6510    -2.3930   -10.9540 c3         1 TZ4       0.027300
     35 C29          2.4710    -3.4660   -12.0220 c3         1 TZ4       0.223800
     36 N7           2.4540    -2.7890   -13.2970 nu         1 TZ4      -0.836600
     37 C30          3.3680    -2.8750   -14.2990 ca         1 TZ4       0.233600
     38 C31          3.6730    -1.5850   -14.8530 ca         1 TZ4      -0.196300
     39 C32          3.2000    -0.3160   -14.3440 ca         1 TZ4      -0.111000
     40 C33          4.5480    -1.5290   -15.9660 ca         1 TZ4       0.435600
     41 C34          4.8100    -0.2550   -16.5580 ca         1 TZ4      -0.166300
     42 C35          4.3300     0.9070   -16.0580 ca         1 TZ4      -0.119000
     43 C36          3.4930     0.8680   -14.9320 ca         1 TZ4      -0.133000
     44 N8           5.1550    -2.6350   -16.4560 nb         1 TZ4      -0.699000
     45 C37          4.8860    -3.8440   -15.9420 ca         1 TZ4       0.475600
     46 C38          5.4560    -5.0120   -16.5880 c3         1 TZ4      -0.137700
     47 C39          3.9490    -4.0230   -14.8580 ca         1 TZ4      -0.231600
     48 C40          3.6190    -5.3960   -14.5800 c3         1 TZ4      -0.012100
     49 C41          4.1880    -6.4320   -15.2730 c3         1 TZ4      -0.071400
     50 C42          5.4230    -6.2320   -15.9510 c3         1 TZ4      -0.068400
     51 HN31        -0.5000    -0.8670    -0.0030 hn         1 TZ4       0.447800
     52 HN32        -0.5000     0.8670    -0.0040 hn         1 TZ4       0.447800
     53 H18          1.6290     0.0000     2.1540 ha         1 TZ4       0.160000
     54 H17          4.0470    -0.0000     2.1510 ha         1 TZ4       0.148000
     55 H15          1.5980    -0.0000    -2.1100 ha         1 TZ4       0.153000
     56 H9           4.0460    -2.0260    -3.9470 ha         1 TZ4       0.144000
     57 H10          2.8530    -2.3500    -6.0760 ha         1 TZ4       0.156000
     58 H11          1.5990    -0.4820    -7.1300 ha         1 TZ4       0.150000
     59 H12          1.5450     1.7450    -6.0140 ha         1 TZ4       0.156000
     60 H13          2.7470     2.0680    -3.8740 ha         1 TZ4       0.144000
     61 H3           6.2410    -0.2090     2.0710 ha         1 TZ4       0.152000
     62 H2           8.6550    -0.3950     1.8840 ha         1 TZ4       0.158000
     63 HN11        10.6790    -0.4280     0.3690 hn         1 TZ4       0.299200
     64 HN12        10.5070    -0.2250    -1.3440 hn         1 TZ4       0.299200
     65 H5           8.3510     0.0680    -2.3590 ha         1 TZ4       0.142000
     66 H201         7.1750     0.8950    -3.6500 h1         1 TZ4       0.080200
     67 H202         5.6140     0.8580    -4.4290 h1         1 TZ4       0.080200
     68 H211         5.8570    -1.4360    -5.0290 hc         1 TZ4       0.063700
     69 H212         7.2850    -1.6200    -3.9860 hc         1 TZ4       0.063700
     70 H221         7.0530     0.3280    -6.3190 hc         1 TZ4       0.044200
     71 H222         8.4730     0.1060    -5.3000 hc         1 TZ4       0.044200
     72 H231         8.4870    -2.3220    -6.0950 hc         1 TZ4       0.056200
     73 H232         8.9130    -1.0950    -7.3010 hc         1 TZ4       0.056200
     74 H241         7.1160    -2.9540    -7.8590 hc         1 TZ4       0.050700
     75 H242         6.0380    -1.8780    -6.9640 hc         1 TZ4       0.050700
     76 H251         6.4480    -0.0580    -8.4990 hc         1 TZ4       0.059700
     77 H252         7.7740    -0.9540    -9.2890 hc         1 TZ4       0.059700
     78 H27          4.0070    -0.6320    -9.3550 h4         1 TZ4       0.170000
     79 H281         2.3990    -1.4210   -11.3610 h1         1 TZ4       0.068200
     80 H282         2.0220    -2.6120   -10.1000 h1         1 TZ4       0.068200
     81 H291         1.5350    -3.9890   -11.8670 h1         1 TZ4       0.076700
     82 H292         3.2970    -4.1670   -11.9850 h1         1 TZ4       0.076700
     83 HN7          1.6750    -2.1830   -13.4630 hn         1 TZ4       0.432800
     84 H32          2.5510    -0.3170   -13.4760 ha         1 TZ4       0.107000
     85 H34          5.4540    -0.2150   -17.4280 ha         1 TZ4       0.145000
     86 H35          4.5680     1.8510   -16.5340 ha         1 TZ4       0.138000
     87 H36          3.0990     1.7880   -14.5190 ha         1 TZ4       0.127000
     88 H381         4.9470    -5.1330   -17.5370 hc         1 TZ4       0.066200
     89 H382         6.4950    -4.7880   -16.7950 hc         1 TZ4       0.066200
     90 H401         2.5470    -5.4890   -14.7050 hc         1 TZ4       0.041700
     91 H402         3.8410    -5.5630   -13.5330 hc         1 TZ4       0.041700
     92 H411         4.3350    -7.2440   -14.5710 hc         1 TZ4       0.039200
     93 H412         3.4660    -6.7580   -16.0120 hc         1 TZ4       0.039200
     94 H421         5.5530    -7.0170   -16.6860 hc         1 TZ4       0.048700
     95 H422         6.2320    -6.2770   -15.2320 hc         1 TZ4       0.048700
@<TRIPOS>BOND
     1     1     2 1
     2     1    51 1
     3     1    52 1
     4     2     3 ar
     5     2     7 ar
     6     3     4 ar
     7     3    53 1
     8     4     5 ar
     9     4    54 1
    10     5     6 ar
    11     5    15 2
    12     6     7 ar
    13     6     8 2
    14     7    55 1
    15     8     9 1
    16     8    22 1
    17     9    10 ar
    18     9    14 ar
    19    10    11 ar
    20    10    56 1
    21    11    12 ar
    22    11    57 1
    23    12    13 ar
    24    12    58 1
    25    13    14 ar
    26    13    59 1
    27    14    60 1
    28    15    16 1
    29    15    20 1
    30    16    17 2
    31    16    61 1
    32    17    18 1
    33    17    62 1
    34    18    19 2
    35    18    21 1
    36    19    63 1
    37    19    64 1
    38    20    21 2
    39    20    22 1
    40    21    65 1
    41    22    23 1
    42    23    24 1
    43    23    66 1
    44    23    67 1
    45    24    25 1
    46    24    68 1
    47    24    69 1
    48    25    26 1
    49    25    70 1
    50    25    71 1
    51    26    27 1
    52    26    72 1
    53    26    73 1
    54    27    28 1
    55    27    74 1
    56    27    75 1
    57    28    29 1
    58    28    76 1
    59    28    77 1
    60    29    30 1
    61    29    33 2
    62    30    31 2
    63    31    32 1
    64    32    33 1
    65    32    34 1
    66    33    78 1
    67    34    35 1
    68    34    79 1
    69    34    80 1
    70    35    36 1
    71    35    81 1
    72    35    82 1
    73    36    37 1
    74    36    83 1
    75    37    38 ar
    76    37    47 ar
    77    38    39 ar
    78    38    40 ar
    79    39    43 ar
    80    39    84 1
    81    40    41 ar
    82    40    44 ar
    83    41    42 ar
    84    41    85 1
    85    42    43 ar
    86    42    86 1
    87    43    87 1
    88    44    45 ar
    89    45    46 1
    90    45    47 ar
    91    46    50 1
    92    46    88 1
    93    46    89 1
    94    47    48 1
    95    48    49 1
    96    48    90 1
    97    48    91 1
    98    49    50 1
    99    49    92 1
   100    49    93 1
   101    50    94 1
   102    50    95 1
@<TRIPOS>SUBSTRUCTURE
     1 TZ4         1 TEMP              0 ****  ****    0 ROOT
