@<TRIPOS>MOLECULE
molecule
   95   102     1     0     0
SMALL
bcc


@<TRIPOS>ATOM
      1 N2           0.0000     0.0000     0.0000 nv         1 TZ5      -0.638100
      2 C8           1.3790     0.0000     0.0000 cc         1 TZ5       0.209700
      3 C7           2.1740     0.0000     1.1580 cc         1 TZ5      -0.115000
      4 C6           3.5330    -0.0010     1.0650 cd         1 TZ5      -0.095000
      5 C5           4.2880    -0.0210    -0.1730 cd         1 TZ5      -0.024000
      6 C19          2.0860     0.0180    -1.1980 cc         1 TZ5      -0.173000
      7 C18          3.5070     0.0760    -1.3830 cd         1 TZ5      -0.005300
      8 N3           4.1200    -0.2350    -2.6300 na         1 TZ5       0.012900
      9 C11          5.3830    -0.7340    -2.7460 cc         1 TZ5       0.185700
     10 C12          5.9600    -1.1050    -4.0870 ca         1 TZ5      -0.131000
     11 C13          6.7690    -0.2100    -4.8130 ca         1 TZ5      -0.095500
     12 C14          7.3130    -0.5800    -6.0490 ca         1 TZ5      -0.121000
     13 C15          7.0490    -1.8480    -6.5880 ca         1 TZ5      -0.087000
     14 C16          6.2450    -2.7620    -5.8920 ca         1 TZ5      -0.121000
     15 C17          5.7170    -2.3790    -4.6600 ca         1 TZ5      -0.095500
     16 C10          6.1760    -0.9450    -1.5700 ca         1 TZ5      -0.067000
     17 C9           7.5910    -1.2870    -1.6620 ca         1 TZ5      -0.196000
     18 C4           5.6500    -0.5710    -0.2640 ca         1 TZ5       0.010000
     19 C3           6.6350    -0.5230     0.7960 ca         1 TZ5      -0.097000
     20 C2           7.9690    -0.8340     0.6490 ca         1 TZ5      -0.109000
     21 C1           8.5100    -1.2340    -0.6150 ca         1 TZ5       0.218600
     22 N1           9.8430    -1.5540    -0.8080 nv         1 TZ5      -0.879200
     23 C20          3.3290    -0.0520    -3.8960 c3         1 TZ5      -0.001700
     24 C21          2.4690    -1.2260    -4.4130 c3         1 TZ5      -0.091400
     25 C22          1.7970    -0.9970    -5.7930 c3         1 TZ5      -0.069400
     26 C23          1.2930     0.4370    -5.9470 c3         1 TZ5      -0.090400
     27 C24          0.4030     0.6750    -7.1570 c3         1 TZ5      -0.065400
     28 C25          0.3850     2.1720    -7.3980 c3         1 TZ5       0.011900
     29 C26         -0.8490     2.9640    -7.1160 cc         1 TZ5      -0.231900
     30 N4          -1.1110     4.1790    -6.5950 na         1 TZ5       0.147400
     31 N5          -2.3990     4.4590    -6.6140 nc         1 TZ5      -0.216800
     32 N6          -3.1070     3.5000    -7.1350 nd         1 TZ5      -0.291000
     33 C27         -2.1490     2.6420    -7.4260 cd         1 TZ5       0.222200
     34 C28         -0.0830     5.0720    -6.0950 c3         1 TZ5       0.015300
     35 C29          0.5170     5.8930    -7.2340 c3         1 TZ5       0.224800
     36 N7          -0.3800     6.9860    -7.6410 nu         1 TZ5      -0.840600
     37 C30         -0.9780     6.9710    -8.8890 ca         1 TZ5       0.216600
     38 C31         -0.3060     6.7340   -10.1210 ca         1 TZ5      -0.179300
     39 C32          1.1280     6.5780   -10.2910 ca         1 TZ5      -0.115000
     40 C33         -1.0680     6.7220   -11.3170 ca         1 TZ5       0.436600
     41 C34         -0.3780     6.5140   -12.5640 ca         1 TZ5      -0.167300
     42 C35          0.9680     6.3560   -12.6580 ca         1 TZ5      -0.123000
     43 C36          1.7460     6.3880   -11.4800 ca         1 TZ5      -0.136000
     44 N8          -2.3880     6.9590   -11.3320 nb         1 TZ5      -0.696000
     45 C37         -3.0520     7.1760   -10.1780 ca         1 TZ5       0.468600
     46 C38         -4.4570     7.5280   -10.2290 c3         1 TZ5      -0.139700
     47 C39         -2.3730     7.2370    -8.9200 ca         1 TZ5      -0.222600
     48 C40         -3.1890     7.7480    -7.8350 c3         1 TZ5      -0.020100
     49 C41         -4.5140     8.0750    -7.9910 c3         1 TZ5      -0.069400
     50 C42         -5.2460     7.6020    -9.1180 c3         1 TZ5      -0.063400
     51 HN21        -0.5000    -0.8660    -0.0230 hn         1 TZ5       0.296700
     52 HN22        -0.5000     0.8660     0.0470 hn         1 TZ5       0.296700
     53 H7           1.7020     0.0010     2.1330 ha         1 TZ5       0.164000
     54 H6           4.0950    -0.0010     1.9910 ha         1 TZ5       0.149000
     55 H19          1.4900    -0.0140    -2.1020 ha         1 TZ5       0.141000
     56 H13          6.9790     0.7720    -4.4070 ha         1 TZ5       0.141500
     57 H14          7.9350     0.1190    -6.5950 ha         1 TZ5       0.159000
     58 H15          7.4730    -2.1250    -7.5460 ha         1 TZ5       0.155000
     59 H16          6.0390    -3.7430    -6.3020 ha         1 TZ5       0.159000
     60 H17          5.0960    -3.0820    -4.1200 ha         1 TZ5       0.141500
     61 H9           7.9650    -1.5860    -2.6330 ha         1 TZ5       0.147000
     62 H3           6.2960    -0.2290     1.7820 ha         1 TZ5       0.151000
     63 H2           8.6250    -0.7710     1.5090 ha         1 TZ5       0.157000
     64 HN11        10.4860    -1.5010    -0.0430 hn         1 TZ5       0.451300
     65 HN12        10.1620    -1.8460    -1.7110 hn         1 TZ5       0.451300
     66 H201         2.6690     0.7940    -3.7480 h1         1 TZ5       0.084700
     67 H202         4.0280     0.2090    -4.6820 h1         1 TZ5       0.084700
     68 H211         3.1000    -2.1040    -4.4840 hc         1 TZ5       0.054700
     69 H212         1.6910    -1.4230    -3.6850 hc         1 TZ5       0.054700
     70 H221         2.5170    -1.2040    -6.5750 hc         1 TZ5       0.060700
     71 H222         0.9600    -1.6780    -5.8950 hc         1 TZ5       0.060700
     72 H231         2.1510     1.0940    -6.0200 hc         1 TZ5       0.035700
     73 H232         0.7350     0.7000    -5.0560 hc         1 TZ5       0.035700
     74 H241        -0.6010     0.3200    -6.9550 hc         1 TZ5       0.062200
     75 H242         0.8090     0.1650    -8.0220 hc         1 TZ5       0.062200
     76 H251         0.6340     2.3310    -8.4410 hc         1 TZ5       0.049700
     77 H252         1.1830     2.6010    -6.8040 hc         1 TZ5       0.049700
     78 H27         -2.3840     1.6930    -7.8920 h4         1 TZ5       0.022100
     79 H281         0.6990     4.4880    -5.6260 h1         1 TZ5       0.069700
     80 H282        -0.5170     5.7420    -5.3630 h1         1 TZ5       0.069700
     81 H291         1.4600     6.3140    -6.9080 h1         1 TZ5       0.057200
     82 H292         0.6930     5.2450    -8.0830 h1         1 TZ5       0.057200
     83 HN7         -0.5590     7.7440    -7.0130 hn         1 TZ5       0.446800
     84 H32          1.7460     6.6000    -9.4010 ha         1 TZ5       0.111000
     85 H34         -0.9630     6.4870   -13.4760 ha         1 TZ5       0.146000
     86 H35          1.4370     6.2050   -13.6230 ha         1 TZ5       0.137000
     87 H36          2.8210     6.2650   -11.5280 ha         1 TZ5       0.130000
     88 H381        -4.5130     8.4970   -10.7100 hc         1 TZ5       0.063700
     89 H382        -4.9270     6.8120   -10.8920 hc         1 TZ5       0.063700
     90 H401        -3.1460     7.0100    -7.0430 hc         1 TZ5       0.047200
     91 H402        -2.6930     8.6410    -7.4710 hc         1 TZ5       0.047200
     92 H411        -4.5740     9.1570    -8.0050 hc         1 TZ5       0.038200
     93 H412        -5.0330     7.7270    -7.1070 hc         1 TZ5       0.038200
     94 H421        -6.0680     8.2790    -9.3130 hc         1 TZ5       0.049700
     95 H422        -5.6370     6.6160    -8.8960 hc         1 TZ5       0.049700
@<TRIPOS>BOND
     1     1     2 2
     2     1    51 1
     3     1    52 1
     4     2     3 1
     5     2     6 1
     6     3     4 2
     7     3    53 1
     8     4     5 1
     9     4    54 1
    10     5     7 1
    11     5    18 2
    12     6     7 2
    13     6    55 1
    14     7     8 1
    15     8     9 1
    16     8    23 1
    17     9    10 1
    18     9    16 2
    19    10    11 ar
    20    10    15 ar
    21    11    12 ar
    22    11    56 1
    23    12    13 ar
    24    12    57 1
    25    13    14 ar
    26    13    58 1
    27    14    15 ar
    28    14    59 1
    29    15    60 1
    30    16    17 ar
    31    16    18 ar
    32    17    21 ar
    33    17    61 1
    34    18    19 ar
    35    19    20 ar
    36    19    62 1
    37    20    21 ar
    38    20    63 1
    39    21    22 1
    40    22    64 1
    41    22    65 1
    42    23    24 1
    43    23    66 1
    44    23    67 1
    45    24    25 1
    46    24    68 1
    47    24    69 1
    48    25    26 1
    49    25    70 1
    50    25    71 1
    51    26    27 1
    52    26    72 1
    53    26    73 1
    54    27    28 1
    55    27    74 1
    56    27    75 1
    57    28    29 1
    58    28    76 1
    59    28    77 1
    60    29    30 1
    61    29    33 2
    62    30    31 1
    63    30    34 1
    64    31    32 2
    65    32    33 1
    66    33    78 1
    67    34    35 1
    68    34    79 1
    69    34    80 1
    70    35    36 1
    71    35    81 1
    72    35    82 1
    73    36    37 1
    74    36    83 1
    75    37    38 ar
    76    37    47 ar
    77    38    39 ar
    78    38    40 ar
    79    39    43 ar
    80    39    84 1
    81    40    41 ar
    82    40    44 ar
    83    41    42 ar
    84    41    85 1
    85    42    43 ar
    86    42    86 1
    87    43    87 1
    88    44    45 ar
    89    45    46 1
    90    45    47 ar
    91    46    50 1
    92    46    88 1
    93    46    89 1
    94    47    48 1
    95    48    49 1
    96    48    90 1
    97    48    91 1
    98    49    50 1
    99    49    92 1
   100    49    93 1
   101    50    94 1
   102    50    95 1
@<TRIPOS>SUBSTRUCTURE
     1 TZ5         1 TEMP              0 ****  ****    0 ROOT
