@<TRIPOS>MOLECULE
molecule
   31    31     1     0     0
SMALL
bcc


@<TRIPOS>ATOM
      1 NH           0.0000     0.0000     0.0000 nz         1 TZA      -0.808600
      2 CZ           1.4690     0.0000     0.0000 c3         1 TZA       0.199900
      3 CE2          1.9610     0.0000     1.4150 c2         1 TZA      -0.268700
      4 CD2          2.3870     1.0710     2.0120 c2         1 TZA      -0.059200
      5 CE1          1.9590     1.2050    -0.7440 c2         1 TZA      -0.268700
      6 CD1          2.3840     2.2760    -0.1470 c2         1 TZA      -0.059200
      7 CG           2.4280     2.4120     1.3450 c3         1 TZA      -0.047300
      8 CX           1.2280     3.2400     1.8070 c3         1 TZA      -0.084400
      9 CB           1.2620     4.6110     1.1310 c3         1 TZA      -0.095400
     10 CA           0.0620     5.4380     1.5930 c3         1 TZA      -0.021500
     11 N           -1.1800     4.7450     1.2310 nz         1 TZA      -0.790600
     12 C            0.0960     6.7900     0.9280 c          1 TZA       0.859600
     13 O           -0.4570     6.9530    -0.1340 o          1 TZA      -0.751300
     14 O2           0.7410     7.8110     1.5130 o          1 TZA      -0.751300
     15 HNH1        -0.3340     0.4520     0.8280 hn         1 TZA       0.449467
     16 HNH2        -0.3340     0.4910    -0.8060 hn         1 TZA       0.449467
     17 HCZ          1.8280    -0.8920    -0.4980 hx         1 TZA       0.126700
     18 HE22         1.9620    -0.9340     1.9630 ha         1 TZA       0.164500
     19 HD22         2.7280     0.9920     3.0370 ha         1 TZA       0.171000
     20 HE11         1.9570     1.1820    -1.8270 ha         1 TZA       0.164500
     21 HD11         2.4210     3.1880    -0.7310 ha         1 TZA       0.171000
     22 HCG          3.3440     2.9180     1.6260 hc         1 TZA       0.125700
     23 HCX1         1.2700     3.3670     2.8820 hc         1 TZA       0.031700
     24 HCX2         0.3120     2.7280     1.5400 hc         1 TZA       0.031700
     25 HCB1         1.2210     4.4840     0.0560 hc         1 TZA       0.093700
     26 HCB2         2.1780     5.1230     1.3990 hc         1 TZA       0.093700
     27 HCA          0.1040     5.5650     2.6680 hx         1 TZA       0.115700
     28 HN1         -1.0810     4.3350     0.3230 hn         1 TZA       0.436133
     29 HN2         -1.9370     5.3990     1.2210 hn         1 TZA       0.436133
     30 HH3         -0.3340    -0.9430    -0.0200 hn         1 TZA       0.449467
     31 HN3         -1.3710     4.0300     1.9050 hn         1 TZA       0.436133
@<TRIPOS>BOND
     1     1     2 1
     2     1    15 1
     3     1    16 1
     4     2     3 1
     5     2     5 1
     6     2    17 1
     7     3     4 2
     8     3    18 1
     9     4     7 1
    10     4    19 1
    11     5     6 2
    12     5    20 1
    13     6     7 1
    14     6    21 1
    15     7     8 1
    16     7    22 1
    17     8     9 1
    18     8    23 1
    19     8    24 1
    20     9    10 1
    21     9    25 1
    22     9    26 1
    23    10    11 1
    24    10    12 1
    25    10    27 1
    26    11    28 1
    27    11    29 1
    28    12    13 1
    29    12    14 1
    30    30     1 1
    31    31    11 1
@<TRIPOS>SUBSTRUCTURE
     1 TZA         1 TEMP              0 ****  ****    0 ROOT
