@<TRIPOS>MOLECULE
molecule
   15    15     1     0     0
SMALL
bcc


@<TRIPOS>ATOM
      1 N1           0.0000     0.0000     0.0000 na         1 TZC      -0.057900
      2 N2           1.4050     0.0000     0.0000 nc         1 TZC      -0.247800
      3 C3           1.7820     0.0000     1.2500 cd         1 TZC       0.192200
      4 N4           0.7020    -0.0080     2.0330 nd         1 TZC      -0.042000
      5 C5          -0.3790    -0.0090     1.2970 cc         1 TZC       0.094200
      6 C6          -0.8310     0.0020    -1.1080 c2         1 TZC       0.537700
      7 N7          -2.1500    -0.0050    -0.9490 nz         1 TZC      -0.792600
      8 N8          -0.3090     0.0110    -2.3300 nv         1 TZC      -0.313200
      9 H3           2.8090     0.0010     1.5960 h5         1 TZC       0.170800
     10 H5          -1.3980    -0.0130     1.6630 h5         1 TZC       0.111800
     11 HN71        -2.4290     0.8090    -0.4370 hn         1 TZC       0.524800
     12 HN72        -2.5940    -0.0030    -1.8460 hn         1 TZC       0.524800
     13 HN81        -0.9090     0.0120    -3.1310 hn         1 TZC       0.386200
     14 HN82         0.6850     0.0160    -2.4490 hn         1 TZC       0.386200
     15 H73         -2.4220    -0.8250    -0.4450 hn         1 TZC       0.524800
@<TRIPOS>BOND
     1     1     2 1
     2     1     5 1
     3     1     6 2
     4     2     3 2
     5     3     4 1
     6     3     9 1
     7     4     5 2
     8     5    10 1
     9     6     7 1
    10     6     8 1
    11     7    11 1
    12     7    12 1
    13     8    13 1
    14     8    14 1
    15    15     7 1
@<TRIPOS>SUBSTRUCTURE
     1 TZC         1 TEMP              0 ****  ****    0 ROOT
