@<TRIPOS>MOLECULE
TZE
   18    18     1     0     0
SMALL
bcc


@<TRIPOS>ATOM
      1 C1          0.0500   -0.0540    0.1670 cc        1 TZE      0.371300
      2 N1          1.3510   -0.0420   -0.0960 nd        1 TZE     -0.624000
      3 C2          2.0650   -0.0030    1.1030 cd        1 TZE      0.346600
      4 C3          1.2670    0.0180    2.2500 cc        1 TZE     -0.195700
      5 S1         -0.3640   -0.0190    1.8200 ss        1 TZE     -0.102300
      6 CM          3.5460   -0.0030    1.1270 c3        1 TZE     -0.126400
      7 C1'         1.7520    0.0420    3.6370 c3        1 TZE     -0.008100
      8 C2'         1.9780    1.4690    4.1250 c3        1 TZE      0.133400
      9 OXT         2.4650    1.3680    5.4550 oh        1 TZE     -0.602800
     10 H1         -0.6930   -0.0840   -0.6360 h5        1 TZE      0.054100
     11 H1M         3.9790    0.2300    0.1230 hc        1 TZE      0.053700
     12 H2M         3.9130   -1.0100    1.4480 hc        1 TZE      0.053700
     13 H3M         3.9100    0.7590    1.8610 hc        1 TZE      0.053700
     14 H11'        1.0220   -0.4650    4.3230 hc        1 TZE      0.069200
     15 H12'        2.7210   -0.5230    3.7120 hc        1 TZE      0.069200
     16 H21'        1.0170    2.0500    4.1120 h1        1 TZE      0.026700
     17 H22'        2.7310    1.9920    3.4780 h1        1 TZE      0.026700
     18 HXT         2.6190    2.2690    5.7600 ho        1 TZE      0.403000
@<TRIPOS>BOND
     1    1    2 2   
     2    1    5 1   
     3    1   10 1   
     4    2    3 1   
     5    3    4 2   
     6    3    6 1   
     7    4    5 1   
     8    4    7 1   
     9    6   11 1   
    10    6   12 1   
    11    6   13 1   
    12    7    8 1   
    13    7   14 1   
    14    7   15 1   
    15    8    9 1   
    16    8   16 1   
    17    8   17 1   
    18    9   18 1   
@<TRIPOS>SUBSTRUCTURE
     1 TZE         1 TEMP              0 ****  ****    0 ROOT
