@<TRIPOS>MOLECULE
molecule
   18    18     1     0     0
SMALL
bcc


@<TRIPOS>ATOM
      1 C1           0.0000     0.0000     0.0000 cc         1 TZE       0.488300
      2 N1           1.3120     0.0000     0.0000 nd         1 TZE      -0.712000
      3 C2           2.0000     0.0000     1.1210 cd         1 TZE       0.364600
      4 C3           1.3200    -0.0070     2.2960 cc         1 TZE      -0.103700
      5 S1          -0.3650    -0.0000     1.6980 ss         1 TZE      -0.294300
      6 CM           3.5070    -0.0010     1.1050 c3         1 TZE      -0.120400
      7 C1'          1.8380    -0.0100     3.7100 c3         1 TZE       0.016900
      8 C2'          2.0200     1.4310     4.1900 c3         1 TZE       0.142400
      9 OXT          2.5120     1.4280     5.5320 oh         1 TZE      -0.613800
     10 H1          -0.6810     0.0020    -0.8430 h5         1 TZE       0.079100
     11 H1M          3.8570    -0.1460     0.0890 hc         1 TZE       0.050700
     12 H2M          3.8750    -0.8040     1.7310 hc         1 TZE       0.050700
     13 H3M          3.8730     0.9470     1.4810 hc         1 TZE       0.050700
     14 H11'         1.1300    -0.5190     4.3530 hc         1 TZE       0.070200
     15 H12'         2.7910    -0.5250     3.7440 hc         1 TZE       0.070200
     16 H21'         2.7270     1.9390     3.5470 h1         1 TZE       0.026700
     17 H22'         1.0670     1.9450     4.1570 h1         1 TZE       0.026700
     18 HXT          2.5360     2.3110     5.8600 ho         1 TZE       0.406000
@<TRIPOS>BOND
     1     1     2 2
     2     1     5 1
     3     1    10 1
     4     2     3 1
     5     3     4 2
     6     3     6 1
     7     4     5 1
     8     4     7 1
     9     6    11 1
    10     6    12 1
    11     6    13 1
    12     7     8 1
    13     7    14 1
    14     7    15 1
    15     8     9 1
    16     8    16 1
    17     8    17 1
    18     9    18 1
@<TRIPOS>SUBSTRUCTURE
     1 TZE         1 TEMP              0 ****  ****    0 ROOT
