@<TRIPOS>MOLECULE
molecule
   19    20     1     0     0
SMALL
bcc


@<TRIPOS>ATOM
      1 CAD          0.0000     0.0000     0.0000 ca         1 TZF      -0.125000
      2 CAB          1.3810     0.0000     0.0000 ca         1 TZF      -0.133500
      3 CAJ          2.0740     0.0000     1.2020 ca         1 TZF       0.099100
      4 OAA          3.4340     0.0010     1.2020 oh         1 TZF      -0.519100
      5 CAC          1.3810    -0.0000     2.4040 ca         1 TZF      -0.133500
      6 CAE         -0.0000    -0.0000     2.4050 ca         1 TZF      -0.125000
      7 CAK         -0.6940     0.0050     1.2020 ca         1 TZF       0.019800
      8 NAL         -2.0970     0.0040     1.2020 na         1 TZF       0.015500
      9 CAG         -2.9050     0.0080     0.1250 cc         1 TZF       0.453400
     10 NAH         -4.1440     0.0060     0.5470 nd         1 TZF      -0.757000
     11 CAF         -4.1670     0.0010     1.8790 cd         1 TZF       0.573900
     12 NAI         -2.9390    -0.0060     2.3270 nc         1 TZF      -0.546800
     13 H1          -0.5420     0.0020    -0.9380 ha         1 TZF       0.151000
     14 H2           1.9230    -0.0040    -0.9380 ha         1 TZF       0.149500
     15 H3           3.7490    -0.8880     1.2020 ho         1 TZF       0.422000
     16 H4           1.9230    -0.0020     3.3420 ha         1 TZF       0.149500
     17 H5          -0.5420     0.0020     3.3430 ha         1 TZF       0.151000
     18 H6          -2.5860     0.0120    -0.9100 h5         1 TZF       0.073100
     19 H7          -5.0600    -0.0030     2.4930 h5         1 TZF       0.082100
@<TRIPOS>BOND
     1     4     3 1
     2     5     3 ar
     3     5     6 ar
     4     3     2 ar
     5     6     7 ar
     6     2     1 ar
     7     7     1 ar
     8     7     8 1
     9     8     9 1
    10     8    12 1
    11     9    10 2
    12    12    11 2
    13    10    11 1
    14     1    13 1
    15     2    14 1
    16     4    15 1
    17     5    16 1
    18     6    17 1
    19     9    18 1
    20    11    19 1
@<TRIPOS>SUBSTRUCTURE
     1 TZF         1 TEMP              0 ****  ****    0 ROOT
