@<TRIPOS>MOLECULE
TZF
   19    20     1     0     0
SMALL
bcc


@<TRIPOS>ATOM
      1 CAD        -0.0110    0.2390   -0.0080 ca        1 TZF     -0.093500
      2 CAB         1.3760    0.2010   -0.0350 ca        1 TZF     -0.172500
      3 CAJ         2.0840   -0.0790    1.1460 ca        1 TZF      0.126100
      4 OAA         3.4540   -0.1010    1.0480 oh        1 TZF     -0.491100
      5 CAC         1.4020   -0.3190    2.3470 ca        1 TZF     -0.172500
      6 CAE         0.0120   -0.2870    2.3730 ca        1 TZF     -0.093500
      7 CAK        -0.7090   -0.0130    1.1930 ca        1 TZF     -0.018200
      8 NAL        -2.1300    0.0120    1.1990 na        1 TZF      0.016500
      9 CAG        -2.9660   -0.2810    0.0940 cc        1 TZF      0.411400
     10 NAH        -4.2550   -0.1590    0.4670 nd        1 TZF     -0.681000
     11 CAF        -4.1720    0.2130    1.8230 cd        1 TZF      0.504900
     12 NAI        -2.8910    0.3160    2.2720 nc        1 TZF     -0.513800
     13 H1         -0.5550    0.4760   -0.9360 ha        1 TZF      0.152500
     14 H2          1.9290    0.3920   -0.9660 ha        1 TZF      0.150500
     15 H3          3.8150   -0.2930    1.9270 ho        1 TZF      0.423000
     16 H4          1.9620   -0.5310    3.2700 ha        1 TZF      0.150500
     17 H5         -0.5130   -0.4750    3.3230 ha        1 TZF      0.152500
     18 H6         -2.5870   -0.5690   -0.8910 h5        1 TZF      0.073100
     19 H7         -5.0560    0.3980    2.4420 h5        1 TZF      0.074100
@<TRIPOS>BOND
     1    1    2 ar  
     2    1    7 ar  
     3    1   13 1   
     4    2    3 ar  
     5    2   14 1   
     6    3    4 1   
     7    3    5 ar  
     8    4   15 1   
     9    5    6 ar  
    10    5   16 1   
    11    6    7 ar  
    12    6   17 1   
    13    7    8 1   
    14    8    9 1   
    15    8   12 1   
    16    9   10 2   
    17    9   18 1   
    18   10   11 1   
    19   11   12 2   
    20   11   19 1   
@<TRIPOS>SUBSTRUCTURE
     1 TZF         1 TEMP              0 ****  ****    0 ROOT
