@<TRIPOS>MOLECULE
TZG
   33    33     1     0     0
SMALL
bcc


@<TRIPOS>ATOM
      1 N1           0.0000     0.0000     0.0000 no         1 TZG       1.083200
      2 C4           3.7520     0.0000     0.0000 ca         1 TZG      -0.231000
      3 C5           2.4410     0.0000     0.4430 ca         1 TZG       0.088400
      4 C6           1.4030    -0.0000    -0.4730 ca         1 TZG      -0.507200
      5 C7           5.4510    -0.0020    -1.8370 c3         1 TZG       0.040900
      6 C8           6.3930     0.1510    -0.6410 c3         1 TZG      -0.160500
      7 C12          7.8200     0.0100    -1.1050 c          1 TZG       0.940600
      8 O5           8.4960     0.9950    -1.2860 o          1 TZG      -0.826300
      9 N2           6.2040     1.4740    -0.0330 nz         1 TZG      -0.086600
     10 C3           4.0230    -0.0010    -1.3550 ca         1 TZG       0.029700
     11 O1          -0.8570     0.5860    -0.6370 o          1 TZG      -0.452000
     12 O2          -0.3020    -0.6330     0.9450 o          1 TZG      -0.452000
     13 C1           1.6760    -0.0000    -1.8270 ca         1 TZG       0.100000
     14 C2           2.9860    -0.0010    -2.2680 ca         1 TZG      -0.243300
     15 C9           2.5410    -1.3320    -2.9340 c3         1 TZG       0.072900
     16 C11          2.0780    -3.7770    -2.5400 c          1 TZG       0.989600
     17 O7           0.8500    -3.9990    -2.7070 o          1 TZG      -0.879800
     18 O6           2.9280    -4.6430    -2.8850 o          1 TZG      -0.879800
     19 H4           4.5640    -0.0710     0.7140 ha         1 TZG       0.116000
     20 H7           5.8760    -0.7060    -2.5430 hc         1 TZG       0.058700
     21 H7A          5.3220     0.9590    -2.3200 hc         1 TZG       0.058700
     22 H8           6.1740    -0.6170     0.0920 hx         1 TZG       0.107700
     23 H10          1.8640    -2.2040    -1.0750 hc         1 TZG       0.013700
     24 H10A         3.5410    -2.5890    -1.4870 hc         1 TZG       0.013700
     25 HN2          6.8910     1.6150     0.6800 hn         1 TZG       0.260800
     26 HN2A         6.3030     2.1800    -0.7360 hn         1 TZG       0.260800
     27 H1           0.8660    -0.0750    -2.5420 ha         1 TZG       0.150000
     28 H9           1.5430    -1.2160    -3.3400 hc         1 TZG       0.039700
     29 H9A          3.2280    -1.5840    -3.7330 hc         1 TZG       0.039700
     30 O4           8.6030    -0.7850    -0.5110 o          1 TZG      -0.826300
     31 H23          5.3670     1.8890    -0.3920 hn         1 TZG       0.260800
     32 Cl1          2.0920     0.0360     2.1920 cl         1 TZG       0.003600
     33 C10          2.5400    -2.4620    -1.8820 c3         1 TZG      -0.183400
@<TRIPOS>BOND
     1     1     4 1   
     2     1    11 1   
     3     1    12 1   
     4     2     3 ar  
     5     2    10 ar  
     6     2    19 1   
     7     3     4 ar  
     8     3    32 1   
     9     4    13 ar  
    10     5     6 1   
    11     5    10 1   
    12     5    20 1   
    13     5    21 1   
    14     6     7 1   
    15     6     9 1   
    16     6    22 1   
    17     7     8 1   
    18     7    30 1   
    19     9    25 1   
    20     9    26 1   
    21     9    31 1   
    22    10    14 ar  
    23    13    14 ar  
    24    13    27 1   
    25    14    15 1   
    26    15    28 1   
    27    15    29 1   
    28    15    33 1   
    29    16    17 1   
    30    16    18 1   
    31    16    33 1   
    32    23    33 1   
    33    24    33 1   
@<TRIPOS>SUBSTRUCTURE
     1 TZG         1 TEMP              0 ****  ****    0 ROOT
