@<TRIPOS>MOLECULE
molecule
   20    20     1     0     0
SMALL
bcc


@<TRIPOS>ATOM
      1 S1           0.0000     0.0000     0.0000 ss         1 TZL      -0.294300
      2 C2           1.7360     0.0000     0.0000 cc         1 TZL       0.501700
      3 N3           2.0120     0.0000     1.2830 nd         1 TZL      -0.723000
      4 C4           1.0600     0.0120     2.1910 cd         1 TZL       0.359200
      5 C5          -0.2310     0.0090     1.7710 cc         1 TZL      -0.154400
      6 C6           2.6830    -0.0070    -1.1710 c3         1 TZL      -0.077000
      7 C7           3.5640     1.2410    -1.1240 c3         1 TZL      -0.076400
      8 C8           4.5260     1.2340    -2.3120 c3         1 TZL      -0.093100
      9 C9           3.5630    -1.2560    -1.1090 c3         1 TZL      -0.082100
     10 H4           1.3000     0.0150     3.2470 h4         1 TZL       0.037100
     11 H5          -1.1470     0.0140     2.3500 h4         1 TZL       0.194000
     12 H6           2.1150    -0.0120    -2.0930 hc         1 TZL       0.062700
     13 H71          4.1310     1.2480    -0.2010 hc         1 TZL       0.053700
     14 H72          2.9390     2.1250    -1.1700 hc         1 TZL       0.053700
     15 H81          4.8590     2.2460    -2.5130 hc         1 TZL       0.035367
     16 H82          4.0180     0.8410    -3.1850 hc         1 TZL       0.035367
     17 H83          5.3810     0.6120    -2.0810 hc         1 TZL       0.035367
     18 H91          4.0060    -1.4350    -2.0810 hc         1 TZL       0.043700
     19 H92          2.9600    -2.1090    -0.8240 hc         1 TZL       0.043700
     20 H93          4.3480    -1.1090    -0.3770 hc         1 TZL       0.043700
@<TRIPOS>BOND
     1     1     2 1
     2     1     5 1
     3     2     3 2
     4     2     6 1
     5     3     4 1
     6     4     5 2
     7     4    10 1
     8     5    11 1
     9     6     7 1
    10     6     9 1
    11     6    12 1
    12     7     8 1
    13     7    13 1
    14     7    14 1
    15     8    15 1
    16     8    16 1
    17     8    17 1
    18     9    18 1
    19     9    19 1
    20     9    20 1
@<TRIPOS>SUBSTRUCTURE
     1 TZL         1 TEMP              0 ****  ****    0 ROOT
