@<TRIPOS>MOLECULE
TZL
   20    20     1     0     0
SMALL
bcc


@<TRIPOS>ATOM
      1 S1          0.1210   -0.0730   -0.1180 ss        1 TZL     -0.117300
      2 C2          1.8310   -0.0230    0.1270 cc        1 TZL      0.404700
      3 N3          2.1940    0.0730    1.4070 nd        1 TZL     -0.633000
      4 C4          1.0630    0.1070    2.2080 cd        1 TZL      0.331200
      5 C5         -0.1450    0.0360    1.5300 cc        1 TZL     -0.251400
      6 C6          2.7640   -0.0870   -1.0360 c3        1 TZL     -0.091000
      7 C7          3.6340    1.1650   -1.0860 c3        1 TZL     -0.073400
      8 C8          4.2880    1.3480   -2.4310 c3        1 TZL     -0.094100
      9 C9          3.6070   -1.3460   -0.9670 c3        1 TZL     -0.087100
     10 H4          1.1940    0.1850    3.2930 h4        1 TZL      0.043100
     11 H5         -1.1290    0.0490    1.9910 h4        1 TZL      0.180000
     12 H6          2.1390   -0.1240   -1.9750 hc        1 TZL      0.051700
     13 H71         4.4160    1.1010   -0.2840 hc        1 TZL      0.052700
     14 H72         2.9990    2.0620   -0.8590 hc        1 TZL      0.052700
     15 H81         4.9710    0.4950   -2.6640 hc        1 TZL      0.034367
     16 H82         4.8890    2.2900   -2.4380 hc        1 TZL      0.034367
     17 H83         3.5210    1.4150   -3.2410 hc        1 TZL      0.034367
     18 H91         2.9530   -2.2500   -0.9190 hc        1 TZL      0.043033
     19 H92         4.2610   -1.3320   -0.0620 hc        1 TZL      0.043033
     20 H93         4.2530   -1.4210   -1.8750 hc        1 TZL      0.043033
@<TRIPOS>BOND
     1    1    2 1   
     2    1    5 1   
     3    2    3 2   
     4    2    6 1   
     5    3    4 1   
     6    4    5 2   
     7    4   10 1   
     8    5   11 1   
     9    6    7 1   
    10    6    9 1   
    11    6   12 1   
    12    7    8 1   
    13    7   13 1   
    14    7   14 1   
    15    8   15 1   
    16    8   16 1   
    17    8   17 1   
    18    9   18 1   
    19    9   19 1   
    20    9   20 1   
@<TRIPOS>SUBSTRUCTURE
     1 TZL         1 TEMP              0 ****  ****    0 ROOT
