@<TRIPOS>MOLECULE
TZM
   23    24     1     0     0
SMALL
bcc


@<TRIPOS>ATOM
      1 CAG          0.0000     0.0000     0.0000 ca         1 TZM      -0.097000
      2 CAK          1.3890     0.0000     0.0000 ca         1 TZM       0.029600
      3 NAA          2.0890     0.0020    -1.2090 nv         1 TZM      -0.560200
      4 CAC          2.0800     0.0000     1.2060 ca         1 TZM      -0.098000
      5 CAB          1.3850    -0.0020     2.3990 ca         1 TZM      -0.096000
      6 CAD          0.0020    -0.0020     2.3940 ca         1 TZM      -0.063000
      7 CAL         -0.6900     0.0040     1.1970 ca         1 TZM      -0.129300
      8 CAH         -2.1970     0.0040     1.1970 c3         1 TZM       0.065600
      9 NAM         -2.6850     1.3850     1.2040 na         1 TZM       0.342600
     10 NAJ         -2.3570     2.3880     2.1300 nc         1 TZM      -0.682800
     11 CAE         -3.0090     3.4630     1.7690 cd         1 TZM       0.602900
     12 NAI         -3.7210     3.1900     0.6770 nd         1 TZM      -0.705000
     13 CAF         -3.5320     1.9440     0.3240 cc         1 TZM       0.297400
     14 H1          -0.5420     0.0050    -0.9380 ha         1 TZM       0.107000
     15 H2           2.3360    -0.8640    -1.6450 hn         1 TZM       0.274300
     16 H3           2.3360     0.8690    -1.6430 hn         1 TZM       0.274300
     17 H4           3.1640     0.0000     1.2090 ha         1 TZM       0.109000
     18 H5           1.9230    -0.0040     3.3390 ha         1 TZM       0.106000
     19 H6          -0.5420    -0.0020     3.3310 ha         1 TZM       0.112000
     20 H7          -2.5580    -0.5120     2.0790 h1         1 TZM       0.033700
     21 H8          -2.5580    -0.5020     0.3100 h1         1 TZM       0.033700
     22 H9          -2.9760     4.4190     2.2770 h5         1 TZM       0.022100
     23 H10         -3.9840     1.4480    -0.5270 h5         1 TZM       0.022100
@<TRIPOS>BOND
     1     1     2 ar  
     2     1     7 ar  
     3     1    14 1   
     4     2     3 1   
     5     2     4 ar  
     6     3    15 1   
     7     3    16 1   
     8     4     5 ar  
     9     4    17 1   
    10     5     6 ar  
    11     5    18 1   
    12     6     7 ar  
    13     6    19 1   
    14     7     8 1   
    15     8     9 1   
    16     8    20 1   
    17     8    21 1   
    18     9    10 1   
    19     9    13 1   
    20    10    11 2   
    21    11    12 1   
    22    11    22 1   
    23    12    13 2   
    24    13    23 1   
@<TRIPOS>SUBSTRUCTURE
     1 TZM         1 TEMP              0 ****  ****    0 ROOT
