@<TRIPOS>MOLECULE
molecule
   53    56     1     0     0
SMALL
bcc


@<TRIPOS>ATOM
      1 CAO          0.0000     0.0000     0.0000 c3         1 TZN      -0.110400
      2 CAQ          1.5480     0.0000     0.0000 c3         1 TZN      -0.117400
      3 CAR          1.9260     0.0000     1.4950 c3         1 TZN       0.123400
      4 OAA          0.7010     0.0490     2.2450 os         1 TZN      -0.375600
      5 CAJ         -0.3250    -0.5390     1.4170 c3         1 TZN       0.060100
      6 CAP         -1.6910    -0.0810     1.8580 c          1 TZN       0.667100
      7 OAB         -1.7990     0.7300     2.7530 o          1 TZN      -0.578100
      8 NAE         -2.7930    -0.5740     1.2580 n          1 TZN      -0.499800
      9 CAL         -4.1360    -0.1400     1.6730 c3         1 TZN       0.100500
     10 CAN         -4.9140     0.2960     0.4270 c3         1 TZN       0.156300
     11 CAK         -2.6840    -1.5530     0.1670 c3         1 TZN       0.100500
     12 CAM         -3.5230    -1.0580    -1.0170 c3         1 TZN       0.156300
     13 NAF         -4.8890    -0.7880    -0.5650 nh         1 TZN      -0.680300
     14 C2          -5.7170    -0.4940    -1.6350 ca         1 TZN       0.877900
     15 N3          -5.2000    -0.4960    -2.8600 nb         1 TZN      -0.811000
     16 N1          -6.9870    -0.2300    -1.3980 nb         1 TZN      -0.756000
     17 C6          -7.8210     0.0590    -2.4100 ca         1 TZN       0.485600
     18 CAW         -9.1740     0.3440    -2.1920 ca         1 TZN      -0.276300
     19 CAY         -9.9890     0.6350    -3.2630 ca         1 TZN       0.168100
     20 OAC        -11.3020     0.9120    -3.0550 os         1 TZN      -0.307900
     21 CBA        -11.7640     0.8830    -1.7020 c3         1 TZN       0.123700
     22 CAZ         -9.4770     0.6480    -4.5680 ca         1 TZN       0.112100
     23 OAD        -10.3010     0.9380    -5.6110 os         1 TZN      -0.312900
     24 CBB         -9.7200     0.9350    -6.9170 c3         1 TZN       0.126700
     25 CAX         -8.1610     0.3730    -4.8040 ca         1 TZN      -0.162000
     26 C5          -7.3110     0.0730    -3.7310 ca         1 TZN      -0.311600
     27 C4          -5.9400    -0.2240    -3.9240 ca         1 TZN       0.762200
     28 NAI         -5.3890    -0.2240    -5.1890 nv         1 TZN      -1.084500
     29 HAS         -0.3840    -0.6670    -0.7620 hc         1 TZN       0.062200
     30 HAT         -0.3840     1.0050    -0.1260 hc         1 TZN       0.062200
     31 HAV          1.9260     0.8920    -0.4850 hc         1 TZN       0.053200
     32 HAU          1.9260    -0.8920    -0.4850 hc         1 TZN       0.053200
     33 HAX          2.5300     0.8700     1.7210 h1         1 TZN       0.050200
     34 HAW          2.4680    -0.9060     1.7360 h1         1 TZN       0.050200
     35 HAJ         -0.2530    -1.6200     1.4360 h1         1 TZN       0.058700
     36 HAN         -4.6510    -0.9640     2.1530 h1         1 TZN       0.065950
     37 HAM         -4.0520     0.6930     2.3600 h1         1 TZN       0.065950
     38 HAR         -5.9400     0.5120     0.7000 h1         1 TZN       0.061700
     39 HAQ         -4.4520     1.1810     0.0060 h1         1 TZN       0.061700
     40 HAL         -1.6480    -1.6460    -0.1360 h1         1 TZN       0.065950
     41 HAK         -3.0590    -2.5130     0.5010 h1         1 TZN       0.065950
     42 HAO         -3.0870    -0.1480    -1.4120 h1         1 TZN       0.061700
     43 HAP         -3.5430    -1.8190    -1.7880 h1         1 TZN       0.061700
     44 HAY         -9.6020     0.2140    -1.2050 ha         1 TZN       0.163000
     45 HBA        -11.1980     1.5930    -1.1120 h1         1 TZN       0.046700
     46 HBC        -12.8150     1.1460    -1.6740 h1         1 TZN       0.046700
     47 HBB        -11.6300    -0.1120    -1.2960 h1         1 TZN       0.046700
     48 HBE        -10.4790     1.1800    -7.6500 h1         1 TZN       0.041700
     49 HBD         -9.3150    -0.0470    -7.1300 h1         1 TZN       0.041700
     50 HBF         -8.9260     1.6710    -6.9600 h1         1 TZN       0.041700
     51 HAZ         -7.7750     0.3850    -5.8160 ha         1 TZN       0.150000
     52 HBG         -5.3810    -1.0660    -5.7310 hn         1 TZN       0.442800
     53 HAI         -4.9950     0.6160    -5.5640 hn         1 TZN       0.442800
@<TRIPOS>BOND
     1    21    20 1
     2    20    19 1
     3    19    18 ar
     4    19    22 ar
     5    18    17 ar
     6    23    22 1
     7    23    24 1
     8    22    25 ar
     9    17    16 ar
    10    17    26 ar
    11    16    14 ar
    12    11    12 1
    13    11     8 1
    14    12    13 1
    15     4     3 1
    16     4     5 1
    17    25    26 ar
    18    26    27 ar
    19    14    13 1
    20    14    15 ar
    21    13    10 1
    22     3     2 1
    23     5     6 1
    24     5     1 1
    25     8     6 1
    26     8     9 1
    27    27    15 ar
    28    27    28 1
    29     6     7 2
    30     1     2 1
    31    10     9 1
    32     1    29 1
    33     1    30 1
    34     2    31 1
    35     2    32 1
    36     3    33 1
    37     3    34 1
    38     5    35 1
    39     9    36 1
    40     9    37 1
    41    10    38 1
    42    10    39 1
    43    11    40 1
    44    11    41 1
    45    12    42 1
    46    12    43 1
    47    18    44 1
    48    21    45 1
    49    21    46 1
    50    21    47 1
    51    24    48 1
    52    24    49 1
    53    24    50 1
    54    25    51 1
    55    28    52 1
    56    28    53 1
@<TRIPOS>SUBSTRUCTURE
     1 TZN         1 TEMP              0 ****  ****    0 ROOT
