@<TRIPOS>MOLECULE
TZN
   53    56     1     0     0
SMALL
bcc


@<TRIPOS>ATOM
      1 CAO          0.0000     0.0000     0.0000 c3         1 TZN      -0.060400
      2 CAQ          1.5480     0.0000     0.0000 c3         1 TZN      -0.059400
      3 CAR          1.9260     0.0000     1.4950 c3         1 TZN       0.203400
      4 OAA          0.7010     0.0490     2.2450 os         1 TZN      -0.363600
      5 CAJ         -0.3250    -0.5390     1.4170 c3         1 TZN       0.103100
      6 CAP         -1.6910    -0.0810     1.8580 c          1 TZN       0.586100
      7 OAB         -1.7990     0.7300     2.7530 o          1 TZN      -0.618100
      8 NAE         -2.7930    -0.5740     1.2580 n          1 TZN      -0.165800
      9 CAL         -4.1360    -0.1400     1.6730 c3         1 TZN       0.040000
     10 CAN         -4.9140     0.2960     0.4270 c3         1 TZN       0.124800
     11 CAK         -2.6840    -1.5530     0.1670 c3         1 TZN       0.040000
     12 CAM         -3.5230    -1.0580    -1.0170 c3         1 TZN       0.124800
     13 NAF         -4.8890    -0.7880    -0.5650 nh         1 TZN      -0.447300
     14 C2          -5.7170    -0.4940    -1.6350 ca         1 TZN       0.703900
     15 N3          -5.2000    -0.4960    -2.8600 nb         1 TZN      -0.684000
     16 N1          -6.9870    -0.2300    -1.3980 nb         1 TZN      -0.640000
     17 C6          -7.8210     0.0590    -2.4100 ca         1 TZN       0.441600
     18 CAW         -9.1740     0.3440    -2.1920 ca         1 TZN      -0.267300
     19 CAY         -9.9890     0.6350    -3.2630 ca         1 TZN       0.170100
     20 OAC        -11.3020     0.9120    -3.0550 os         1 TZN      -0.290900
     21 CBA        -11.7640     0.8830    -1.7020 c3         1 TZN       0.239700
     22 CAZ         -9.4770     0.6480    -4.5680 ca         1 TZN       0.122100
     23 OAD        -10.3010     0.9380    -5.6110 os         1 TZN      -0.291900
     24 CBB         -9.7200     0.9350    -6.9170 c3         1 TZN       0.241700
     25 CAX         -8.1610     0.3730    -4.8040 ca         1 TZN      -0.156000
     26 C5          -7.3110     0.0730    -3.7310 ca         1 TZN      -0.297600
     27 C4          -5.9400    -0.2240    -3.9240 ca         1 TZN       0.579200
     28 NAI         -5.3890    -0.2240    -5.1890 nv         1 TZN      -0.654500
     29 HAS         -0.3840    -0.6670    -0.7620 hc         1 TZN       0.032700
     30 HAT         -0.3840     1.0050    -0.1260 hc         1 TZN       0.032700
     31 HAV          1.9260     0.8920    -0.4850 hc         1 TZN       0.021700
     32 HAU          1.9260    -0.8920    -0.4850 hc         1 TZN       0.021700
     33 HAX          2.5300     0.8700     1.7210 h1         1 TZN       0.008200
     34 HAW          2.4680    -0.9060     1.7360 h1         1 TZN       0.008200
     35 HAJ         -0.2530    -1.6200     1.4360 h1         1 TZN       0.025700
     36 HAN         -4.6510    -0.9640     2.1530 h1         1 TZN       0.038700
     37 HAM         -4.0520     0.6930     2.3600 h1         1 TZN       0.038700
     38 HAR         -5.9400     0.5120     0.7000 h1         1 TZN       0.033450
     39 HAQ         -4.4520     1.1810     0.0060 h1         1 TZN       0.033450
     40 HAL         -1.6480    -1.6460    -0.1360 h1         1 TZN       0.038700
     41 HAK         -3.0590    -2.5130     0.5010 h1         1 TZN       0.038700
     42 HAO         -3.0870    -0.1480    -1.4120 h1         1 TZN       0.033450
     43 HAP         -3.5430    -1.8190    -1.7880 h1         1 TZN       0.033450
     44 HAY         -9.6020     0.2140    -1.2050 ha         1 TZN       0.143000
     45 HBA        -11.1980     1.5930    -1.1120 h1         1 TZN       0.002033
     46 HBC        -12.8150     1.1460    -1.6740 h1         1 TZN       0.002033
     47 HBB        -11.6300    -0.1120    -1.2960 h1         1 TZN       0.002033
     48 HBE        -10.4790     1.1800    -7.6500 h1         1 TZN      -0.001300
     49 HBD         -9.3150    -0.0470    -7.1300 h1         1 TZN      -0.001300
     50 HBF         -8.9260     1.6710    -6.9600 h1         1 TZN      -0.001300
     51 HAZ         -7.7750     0.3850    -5.8160 ha         1 TZN       0.132000
     52 HBG         -5.3810    -1.0660    -5.7310 hn         1 TZN       0.282300
     53 HAI         -4.9950     0.6160    -5.5640 hn         1 TZN       0.282300
@<TRIPOS>BOND
     1     1     2 1   
     2     1     5 1   
     3     1    29 1   
     4     1    30 1   
     5     2     3 1   
     6     2    31 1   
     7     2    32 1   
     8     3     4 1   
     9     3    33 1   
    10     3    34 1   
    11     4     5 1   
    12     5     6 1   
    13     5    35 1   
    14     6     7 2   
    15     6     8 1   
    16     8     9 1   
    17     8    11 1   
    18     9    10 1   
    19     9    36 1   
    20     9    37 1   
    21    10    13 1   
    22    10    38 1   
    23    10    39 1   
    24    11    12 1   
    25    11    40 1   
    26    11    41 1   
    27    12    13 1   
    28    12    42 1   
    29    12    43 1   
    30    13    14 1   
    31    14    15 ar  
    32    14    16 ar  
    33    15    27 ar  
    34    16    17 ar  
    35    17    18 ar  
    36    17    26 ar  
    37    18    19 ar  
    38    18    44 1   
    39    19    20 1   
    40    19    22 ar  
    41    20    21 1   
    42    21    45 1   
    43    21    46 1   
    44    21    47 1   
    45    22    23 1   
    46    22    25 ar  
    47    23    24 1   
    48    24    48 1   
    49    24    49 1   
    50    24    50 1   
    51    25    26 ar  
    52    25    51 1   
    53    26    27 ar  
    54    27    28 1   
    55    28    52 1   
    56    28    53 1   
@<TRIPOS>SUBSTRUCTURE
     1 TZN         1 TEMP              0 ****  ****    0 ROOT
