@<TRIPOS>MOLECULE
molecule
   21    21     1     0     0
SMALL
bcc


@<TRIPOS>ATOM
      1 N3           0.0000     0.0000     0.0000 nc         1 TZP      -0.713000
      2 C2           1.3120     0.0000     0.0000 cd         1 TZP       0.415300
      3 S1           1.6780     0.0000     1.6980 ss         1 TZP      -0.330300
      4 C5          -0.0060     0.0070     2.2960 cd         1 TZP       0.003300
      5 C4          -0.6870     0.0000     1.1240 cc         1 TZP       0.309600
      6 CM4         -2.1940     0.0010     1.1060 c3         1 TZP      -0.111400
      7 C6          -0.5230     0.0110     3.7120 c3         1 TZP      -0.016100
      8 C7          -0.7050    -1.4300     4.1920 c3         1 TZP       0.164400
      9 O7          -1.1960    -1.4260     5.5340 os         1 TZP      -0.540200
     10 P1          -1.3630    -2.9650     5.9720 p5         1 TZP       1.151900
     11 O1          -1.9160    -3.0360     7.4830 o          1 TZP      -0.908500
     12 O2          -0.0510    -3.6440     5.8960 o          1 TZP      -0.908500
     13 O3          -2.4030    -3.6960     4.9860 o          1 TZP      -0.908500
     14 H21          1.9920    -0.0020    -0.8430 h5         1 TZP       0.051100
     15 HM41        -2.5620     0.8060     1.7310 hc         1 TZP       0.046700
     16 HM42        -2.5430     0.1450     0.0910 hc         1 TZP       0.046700
     17 HM43        -2.5600    -0.9460     1.4840 hc         1 TZP       0.046700
     18 H61          0.1860     0.5190     4.3540 hc         1 TZP       0.052700
     19 H62         -1.4750     0.5260     3.7470 hc         1 TZP       0.052700
     20 H71         -1.4140    -1.9380     3.5490 h1         1 TZP       0.047700
     21 H72          0.2470    -1.9450     4.1570 h1         1 TZP       0.047700
@<TRIPOS>BOND
     1     1     2 2
     2     1     5 1
     3     2     3 1
     4     2    14 1
     5     3     4 1
     6     4     5 2
     7     4     7 1
     8     5     6 1
     9     6    15 1
    10     6    16 1
    11     6    17 1
    12     7     8 1
    13     7    18 1
    14     7    19 1
    15     8     9 1
    16     8    20 1
    17     8    21 1
    18     9    10 1
    19    10    11 1
    20    10    12 1
    21    10    13 1
@<TRIPOS>SUBSTRUCTURE
     1 TZP         1 TEMP              0 ****  ****    0 ROOT
