@<TRIPOS>MOLECULE
TZP
   21    21     1     0     0
SMALL
bcc


@<TRIPOS>ATOM
      1 N3         -0.2440    0.1130    0.0290 nc        1 TZP     -0.647000
      2 C2          1.0170    0.5050    0.1220 cd        1 TZP      0.325300
      3 S1          1.6570    0.5320    1.7090 ss        1 TZP     -0.273300
      4 C5          0.1640   -0.0070    2.3430 cd        1 TZP     -0.039700
      5 C4         -0.7470   -0.1870    1.2990 cc        1 TZP      0.316600
      6 CM4        -2.1380   -0.6610    1.4940 c3        1 TZP     -0.165400
      7 C6         -0.0690   -0.2170    3.7710 c3        1 TZP     -0.096100
      8 C7         -0.0530   -1.7170    4.1770 c3        1 TZP      0.262400
      9 O7         -0.5080   -1.8780    5.4530 os        1 TZP     -0.557200
     10 P1         -2.1320   -2.5360    5.5280 p5        1 TZP      1.318900
     11 O1         -2.5060   -2.3400    6.9680 o         1 TZP     -0.930500
     12 O2         -1.9170   -3.9450    5.0550 o         1 TZP     -0.930500
     13 O3         -2.7840   -1.6170    4.5200 o         1 TZP     -0.930500
     14 H21         1.6020    0.7830   -0.7540 h5        1 TZP      0.012100
     15 HM41       -2.8610    0.1350    1.1900 hc        1 TZP      0.076033
     16 HM42       -2.3250   -0.9360    2.5820 hc        1 TZP      0.076033
     17 HM43       -2.3290   -1.5690    0.8700 hc        1 TZP      0.076033
     18 H61         0.6930    0.3320    4.3810 hc        1 TZP      0.068200
     19 H62        -1.0910    0.1770    4.0460 hc        1 TZP      0.068200
     20 H71         1.0220   -2.0640    4.1010 h1        1 TZP     -0.014800
     21 H72        -0.6790   -2.2940    3.4390 h1        1 TZP     -0.014800
@<TRIPOS>BOND
     1    1    2 2   
     2    1    5 1   
     3    2    3 1   
     4    2   14 1   
     5    3    4 1   
     6    4    5 2   
     7    4    7 1   
     8    5    6 1   
     9    6   15 1   
    10    6   16 1   
    11    6   17 1   
    12    7    8 1   
    13    7   18 1   
    14    7   19 1   
    15    8    9 1   
    16    8   20 1   
    17    8   21 1   
    18    9   10 1   
    19   10   11 1   
    20   10   12 1   
    21   10   13 1   
@<TRIPOS>SUBSTRUCTURE
     1 TZP         1 TEMP              0 ****  ****    0 ROOT
