@<TRIPOS>MOLECULE
TZY
   39    42     1     0     0
SMALL
bcc


@<TRIPOS>ATOM
      1 C7         -0.1280    0.1240    0.0680 cc        1 TZY     -0.031300
      2 C9          2.4450   -0.0600   -3.1940 cc        1 TZY      0.495300
      3 C13         1.1580    0.2700    2.5900 cc        1 TZY     -0.078000
      4 C21        -3.3250   -0.2600    0.4470 c3        1 TZY     -0.053000
      5 C8          1.8850    0.3630    1.4380 cd        1 TZY     -0.112000
      6 C18         6.0130    3.2250    0.8700 ca        1 TZY      0.136900
      7 C16        -0.2610    0.1040    2.5080 cc        1 TZY     -0.083300
      8 F22         6.8870    3.9600    1.5960 f         1 TZY     -0.136900
      9 C15         6.4900    2.2810   -0.0590 ca        1 TZY     -0.171500
     10 C11         5.5860    1.5300   -0.8010 ca        1 TZY     -0.081000
     11 C14         4.6280    3.4070    1.0450 ca        1 TZY     -0.171500
     12 C10         3.7380    2.6470    0.2970 ca        1 TZY     -0.081000
     13 C5          4.2050    1.6990   -0.6250 ca        1 TZY     -0.141500
     14 C2          3.2670    0.9220   -1.4160 cd        1 TZY      0.322500
     15 N6          3.5040    0.6190   -2.7790 nd        1 TZY     -0.659000
     16 O4          1.4910   -0.2460   -2.1880 os        1 TZY     -0.391800
     17 C1          2.0310    0.3790   -1.0470 cd        1 TZY      0.223900
     18 C3          1.2440    0.2940    0.1540 cd        1 TZY     -0.156500
     19 N12        -0.8790    0.0320    1.2130 na        1 TZY     -0.078200
     20 C17        -2.2530   -0.1330    1.4800 cc        1 TZY      0.300800
     21 C24        -4.0290   -1.5960    0.5910 c3        1 TZY     -0.092100
     22 C23        -4.3110    0.8860    0.5780 c3        1 TZY     -0.092100
     23 N19        -1.2550   -0.0150    3.4520 nd        1 TZY     -0.075000
     24 N20        -2.4060   -0.1520    2.8450 nd        1 TZY     -0.338700
     25 H7         -0.6610    0.0500   -0.8970 h4        1 TZY      0.181000
     26 H9          2.2010   -0.4840   -4.1700 h5        1 TZY      0.093100
     27 H13         1.6150    0.3140    3.5900 ha        1 TZY      0.172000
     28 H21        -2.8550   -0.2120   -0.5770 hc        1 TZY      0.047700
     29 H8          2.9790    0.4880    1.4660 ha        1 TZY      0.161000
     30 H15         7.5740    2.1490   -0.1920 ha        1 TZY      0.154000
     31 H11         5.9620    0.7990   -1.5350 ha        1 TZY      0.150500
     32 H14         4.2630    4.1520    1.7670 ha        1 TZY      0.154000
     33 H10         2.6530    2.7920    0.4280 ha        1 TZY      0.150500
     34 H241       -3.3010   -2.4360    0.4910 hc        1 TZY      0.046867
     35 H242       -4.5270   -1.6730    1.5880 hc        1 TZY      0.046867
     36 H243       -4.8060   -1.6970   -0.2050 hc        1 TZY      0.046867
     37 H231       -4.8130    0.8610    1.5750 hc        1 TZY      0.046867
     38 H232       -5.0910    0.8000   -0.2160 hc        1 TZY      0.046867
     39 H233       -3.7900    1.8670    0.4660 hc        1 TZY      0.046867
@<TRIPOS>BOND
     1    1   18 2
     2    1   19 1
     3    1   25 1
     4    2   15 2
     5    2   16 1
     6    2   26 1
     7    3    5 2
     8    3    7 1
     9    3   27 1
    10    4   20 1
    11    4   21 1
    12    4   22 1
    13    4   28 1
    14    5   18 1
    15    5   29 1
    16    6    8 1
    17    6    9 ar
    18    6   11 ar
    19    7   19 1
    20    7   23 2
    21    9   10 ar
    22    9   30 1
    23   10   13 ar
    24   10   31 1
    25   11   12 ar
    26   11   32 1
    27   12   13 ar
    28   12   33 1
    29   13   14 1
    30   14   15 1
    31   14   17 2
    32   16   17 1
    33   17   18 1
    34   19   20 1
    35   20   24 2
    36   21   34 1
    37   21   35 1
    38   21   36 1
    39   22   37 1
    40   22   38 1
    41   22   39 1
    42   23   24 1
@<TRIPOS>SUBSTRUCTURE
     1 TZY         1 TEMP              0 ****  ****    0 ROOT
