@<TRIPOS>MOLECULE
molecule
   17    16     1     0     0
SMALL
bcc


@<TRIPOS>ATOM
      1 C            0.0000     0.0000     0.0000 c3         1 TZZ       0.120700
      2 O1           1.4280     0.0000     0.0000 os         1 TZZ      -0.517200
      3 P            1.8940     0.0000     1.5420 p5         1 TZZ       1.492500
      4 O            3.3720    -0.0000     1.6110 o          1 TZZ      -0.777300
      5 O2           1.3220     1.3150     2.2750 os         1 TZZ      -0.517200
      6 C1           1.9540     2.4390     1.6590 c3         1 TZZ       0.120700
      7 O3           1.3220    -1.3150     2.2750 os         1 TZZ      -0.517200
      8 C2           1.9540    -2.4390     1.6580 c3         1 TZZ       0.120700
      9 H1          -0.3610    -0.8840    -0.5120 h1         1 TZZ       0.052811
     10 H2          -0.3610    -0.0010     1.0210 h1         1 TZZ       0.052811
     11 H3          -0.3610     0.8850    -0.5100 h1         1 TZZ       0.052811
     12 H11          1.4250     3.3440     1.9310 h1         1 TZZ       0.052811
     13 H12          2.9810     2.5050     1.9970 h1         1 TZZ       0.052811
     14 H13          1.9350     2.3190     0.5830 h1         1 TZZ       0.052811
     15 H21          1.4230    -3.3440     1.9260 h1         1 TZZ       0.052811
     16 H22          2.9800    -2.5080     1.9990 h1         1 TZZ       0.052811
     17 H23          1.9390    -2.3170     0.5820 h1         1 TZZ       0.052811
@<TRIPOS>BOND
     1     1     2 1
     2     1     9 1
     3     1    10 1
     4     1    11 1
     5     2     3 1
     6     3     4 2
     7     3     5 1
     8     3     7 1
     9     5     6 1
    10     6    12 1
    11     6    13 1
    12     6    14 1
    13     7     8 1
    14     8    15 1
    15     8    16 1
    16     8    17 1
@<TRIPOS>SUBSTRUCTURE
     1 TZZ         1 TEMP              0 ****  ****    0 ROOT
