@<TRIPOS>MOLECULE
TZZ
   17    16     1     0     0
SMALL
bcc


@<TRIPOS>ATOM
      1 C          -0.3370   -0.0600   -0.4720 c3        1 TZZ      0.159033
      2 O1          1.0690   -0.0120   -0.5500 os        1 TZZ     -0.574533
      3 P           1.9140    0.0160    0.8020 p5        1 TZZ      1.617500
      4 O           3.3640    0.0650    0.7020 o         1 TZZ     -0.802300
      5 O2          1.2340    1.2370    1.5860 os        1 TZZ     -0.574533
      6 C1          2.0670    2.2400    2.1190 c3        1 TZZ      0.159033
      7 O3          1.3190   -1.2500    1.5840 os        1 TZZ     -0.574533
      8 C2          2.2170   -2.1950    2.1150 c3        1 TZZ      0.159033
      9 H1         -0.6810   -0.9860   -1.0020 h1        1 TZZ      0.047811
     10 H2         -0.6690   -0.0710    0.5970 h1        1 TZZ      0.047811
     11 H3         -0.7440    0.8410   -1.0020 h1        1 TZZ      0.047811
     12 H11         3.1420    2.0270    1.8850 h1        1 TZZ      0.047811
     13 H12         1.9010    2.2760    3.2280 h1        1 TZZ      0.047811
     14 H13         1.7520    3.2210    1.6750 h1        1 TZZ      0.047811
     15 H21         1.9680   -3.1950    1.6690 h1        1 TZZ      0.047811
     16 H22         3.2750   -1.9100    1.8800 h1        1 TZZ      0.047811
     17 H23         2.0550   -2.2440    3.2240 h1        1 TZZ      0.047811
@<TRIPOS>BOND
     1    1    2 1   
     2    1    9 1   
     3    1   10 1   
     4    1   11 1   
     5    2    3 1   
     6    3    4 2   
     7    3    5 1   
     8    3    7 1   
     9    5    6 1   
    10    6   12 1   
    11    6   13 1   
    12    6   14 1   
    13    7    8 1   
    14    8   15 1   
    15    8   16 1   
    16    8   17 1   
@<TRIPOS>SUBSTRUCTURE
     1 TZZ         1 TEMP              0 ****  ****    0 ROOT
