@<TRIPOS>MOLECULE
molecule
   23    24     1     0     0
SMALL
bcc


@<TRIPOS>ATOM
      1 N01          0.0000     0.0000     0.0000 nb         1 X01      -0.791000
      2 N02          1.9950     0.0000     1.1520 nb         1 X01      -0.837000
      3 N03         -0.0070    -0.0000     2.2910 nb         1 X01      -0.857000
      4 N05          6.7230     0.0110    -2.5240 n1         1 X01      -0.366800
      5 C06          4.1540    -0.0010    -2.4950 ca         1 X01      -0.060000
      6 C07          3.4490    -0.0010    -3.7030 ca         1 X01      -0.053000
      7 C09          2.0710    -0.0000    -3.6990 ca         1 X01      -0.275000
      8 C10          1.3750    -0.0000    -2.4980 ca         1 X01       0.241100
      9 C11          2.0730    -0.0010    -1.2830 cp         1 X01      -0.191500
     10 C12          3.4630    -0.0070    -1.2840 ca         1 X01      -0.008000
     11 C13          1.3320     0.0000     0.0000 cp         1 X01       0.817500
     12 C14          1.3250    -0.0000     2.3000 ca         1 X01       1.003900
     13 C15         -0.6620     0.0000     1.1440 ca         1 X01       0.750900
     14 C16          5.5870    -0.0020    -2.5030 cg         1 X01       0.244800
     15 HN04         2.8460     0.3920     3.8800 hn         1 X01       0.421800
     16 HN0A         1.5580     0.0330     4.3910 hn         1 X01       0.421800
     17 H07          3.7510    -0.3050    -4.6980 ha         1 X01       0.147000
     18 H09          1.8640     0.0200    -4.7620 ha         1 X01       0.158000
     19 H12          3.9540     0.0150    -0.3180 ha         1 X01       0.176000
     20 H15         -1.7110    -0.2520     1.2360 h5         1 X01       0.067100
     21 HO17        -0.3970    -0.3330    -3.2790 ho         1 X01       0.433000
     22 N04          2.0080    -0.0010     3.4980 nv         1 X01      -0.968500
     23 O17          0.0190    -0.0010    -2.5010 oh         1 X01      -0.474100
@<TRIPOS>BOND
     1    11     1 ar
     2     1    13 ar
     3     2    11 ar
     4     2    12 ar
     5    12     3 ar
     6     3    13 ar
     7    22    12 1
     8    22    15 1
     9    22    16 1
    10    14     4 3
    11     6     5 ar
    12     5    14 1
    13     5    10 ar
    14     7     6 ar
    15     6    17 1
    16     7     8 ar
    17     7    18 1
    18    23     8 1
    19     8     9 ar
    20     9    10 ar
    21     9    11 1
    22    10    19 1
    23    13    20 1
    24    23    21 1
@<TRIPOS>SUBSTRUCTURE
     1 X01         1 TEMP              0 ****  ****    0 ROOT
