@<TRIPOS>MOLECULE
X01
   23    24     1     0     0
SMALL
bcc


@<TRIPOS>ATOM
      1 N01          0.0000     0.0000     0.0000 nb         1 X01      -0.695000
      2 N02          1.9950     0.0000     1.1520 nb         1 X01      -0.734000
      3 N03         -0.0070    -0.0000     2.2910 nb         1 X01      -0.763000
      4 N05          6.7230     0.0110    -2.5240 n1         1 X01      -0.388800
      5 C06          4.1540    -0.0010    -2.4950 ca         1 X01      -0.013000
      6 C07          3.4490    -0.0010    -3.7030 ca         1 X01      -0.036000
      7 C09          2.0710    -0.0000    -3.6990 ca         1 X01      -0.262000
      8 C10          1.3750    -0.0000    -2.4980 ca         1 X01       0.259100
      9 C11          2.0730    -0.0010    -1.2830 cp         1 X01      -0.219500
     10 C12          3.4630    -0.0070    -1.2840 ca         1 X01       0.008000
     11 C13          1.3320     0.0000     0.0000 cp         1 X01       0.749500
     12 C14          1.3250    -0.0000     2.3000 ca         1 X01       0.766900
     13 C15         -0.6620     0.0000     1.1440 ca         1 X01       0.713900
     14 C16          5.5870    -0.0020    -2.5030 cg         1 X01       0.238800
     15 HN04         2.8460     0.3920     3.8800 hn         1 X01       0.251300
     16 HN0A         1.5580     0.0330     4.3910 hn         1 X01       0.251300
     17 H07          3.7510    -0.3050    -4.6980 ha         1 X01       0.116000
     18 H09          1.8640     0.0200    -4.7620 ha         1 X01       0.137000
     19 H12          3.9540     0.0150    -0.3180 ha         1 X01       0.138000
     20 H15         -1.7110    -0.2520     1.2360 h5         1 X01       0.002100
     21 HO17        -0.3970    -0.3330    -3.2790 ho         1 X01       0.406000
     22 N04          2.0080    -0.0010     3.4980 nv         1 X01      -0.474500
     23 O17          0.0190    -0.0010    -2.5010 oh         1 X01      -0.450100
@<TRIPOS>BOND
     1     1    11 ar  
     2     1    13 ar  
     3     2    11 ar  
     4     2    12 ar  
     5     3    12 ar  
     6     3    13 ar  
     7     4    14 3   
     8     5     6 ar  
     9     5    10 ar  
    10     5    14 1   
    11     6     7 ar  
    12     6    17 1   
    13     7     8 ar  
    14     7    18 1   
    15     8     9 ar  
    16     8    23 1   
    17     9    10 ar  
    18     9    11 1   
    19    10    19 1   
    20    12    22 1   
    21    13    20 1   
    22    15    22 1   
    23    16    22 1   
    24    21    23 1   
@<TRIPOS>SUBSTRUCTURE
     1 X01         1 TEMP              0 ****  ****    0 ROOT
