@<TRIPOS>MOLECULE
X02
   31    32     1     0     0
SMALL
bcc


@<TRIPOS>ATOM
      1 C1           0.0000     0.0000     0.0000 c2         1 X02      -0.124000
      2 C2           1.3100     0.0000     0.0000 c2         1 X02      -0.193200
      3 C3           2.0630     0.0000     1.3060 c3         1 X02       0.200000
      4 N4           2.9930    -1.1310     1.3340 nu         1 X02      -0.437900
      5 C5           3.7940    -1.3370     2.4340 cc         1 X02       0.598300
      6 N6           3.7980    -0.5840     3.4960 nd         1 X02      -0.724000
      7 C7           4.6230    -0.9120     4.4640 cd         1 X02       0.593200
      8 C8           5.3760    -2.0390     4.1910 cc         1 X02      -0.338000
      9 S9           4.9120    -2.6200     2.5930 ss         1 X02      -0.312300
     10 N10          4.7280    -0.1980     5.6450 nv         1 X02      -0.521500
     11 C11          6.3370    -2.6220     5.0380 c          1 X02       0.708300
     12 C12          7.1690    -3.7450     4.5530 ca         1 X02      -0.163600
     13 C13          7.6720    -4.6850     5.4530 ca         1 X02      -0.067000
     14 C14          8.4470    -5.7300     4.9940 ca         1 X02      -0.113500
     15 C15          8.7260    -5.8460     3.6440 ca         1 X02      -0.083000
     16 C16          8.2310    -4.9180     2.7460 ca         1 X02      -0.113500
     17 C17          7.4500    -3.8710     3.1920 ca         1 X02      -0.067000
     18 O18          6.4830    -2.2000     6.1740 o          1 X02      -0.608100
     19 H1          -0.5420    -0.0000     0.9380 ha         1 X02       0.087500
     20 H1A         -0.5420     0.0000    -0.9380 ha         1 X02       0.087500
     21 H2           1.8520     0.0000    -0.9380 ha         1 X02       0.107000
     22 H3           2.6170     0.9260     1.4040 h1         1 X02       0.033200
     23 H3A          1.3620    -0.0900     2.1260 h1         1 X02       0.033200
     24 HN4          3.0550    -1.7480     0.5480 hn         1 X02       0.299800
     25 HN10         3.9040     0.0410     6.1610 hn         1 X02       0.280300
     26 HN1A         5.6270     0.0910     5.9770 hn         1 X02       0.280300
     27 H13          7.4540    -4.5950     6.5100 ha         1 X02       0.125500
     28 H14          8.8370    -6.4610     5.6920 ha         1 X02       0.103500
     29 H15          9.3370    -6.6670     3.2880 ha         1 X02       0.100000
     30 H16          8.4510    -5.0160     1.6900 ha         1 X02       0.103500
     31 H17          7.0630    -3.1450     2.4880 ha         1 X02       0.125500
@<TRIPOS>BOND
     1     1     2 2   
     2     1    19 1   
     3     1    20 1   
     4     2     3 1   
     5     2    21 1   
     6     3     4 1   
     7     3    22 1   
     8     3    23 1   
     9     4     5 1   
    10     4    24 1   
    11     5     6 2   
    12     5     9 1   
    13     6     7 1   
    14     7     8 2   
    15     7    10 1   
    16     8     9 1   
    17     8    11 1   
    18    10    25 1   
    19    10    26 1   
    20    11    12 1   
    21    11    18 2   
    22    12    13 ar  
    23    12    17 ar  
    24    13    14 ar  
    25    13    27 1   
    26    14    15 ar  
    27    14    28 1   
    28    15    16 ar  
    29    15    29 1   
    30    16    17 ar  
    31    16    30 1   
    32    17    31 1   
@<TRIPOS>SUBSTRUCTURE
     1 X02         1 TEMP              0 ****  ****    0 ROOT
