@<TRIPOS>MOLECULE
molecule
   31    32     1     0     0
SMALL
bcc


@<TRIPOS>ATOM
      1 C1           0.0000     0.0000     0.0000 c2         1 X02      -0.189000
      2 C2           1.3100     0.0000     0.0000 c2         1 X02      -0.210200
      3 C3           2.0630     0.0000     1.3060 c3         1 X02       0.273000
      4 N4           2.9930    -1.1310     1.3340 nu         1 X02      -0.881900
      5 C5           3.7940    -1.3370     2.4340 cc         1 X02       0.746300
      6 N6           3.7980    -0.5840     3.4960 nd         1 X02      -0.813000
      7 C7           4.6230    -0.9120     4.4640 cd         1 X02       0.769200
      8 C8           5.3760    -2.0390     4.1910 cc         1 X02      -0.327000
      9 S9           4.9120    -2.6200     2.5930 ss         1 X02      -0.218300
     10 N10          4.7280    -0.1980     5.6450 nv         1 X02      -1.035500
     11 C11          6.3370    -2.6220     5.0380 c          1 X02       0.634300
     12 C12          7.1690    -3.7450     4.5530 ca         1 X02      -0.159600
     13 C13          7.6720    -4.6850     5.4530 ca         1 X02      -0.090500
     14 C14          8.4470    -5.7300     4.9940 ca         1 X02      -0.138000
     15 C15          8.7260    -5.8460     3.6440 ca         1 X02      -0.110000
     16 C16          8.2310    -4.9180     2.7460 ca         1 X02      -0.138000
     17 C17          7.4500    -3.8710     3.1920 ca         1 X02      -0.090500
     18 O18          6.4830    -2.2000     6.1740 o          1 X02      -0.545100
     19 H1          -0.5420    -0.0000    -0.9380 ha         1 X02       0.118500
     20 H1A         -0.5420     0.0000     0.9380 ha         1 X02       0.118500
     21 H2           1.8520    -0.0000    -0.9380 ha         1 X02       0.128000
     22 H3           1.3620    -0.0880     2.1270 h1         1 X02       0.062200
     23 H3A          2.6180     0.9260     1.4030 h1         1 X02       0.062200
     24 HN4          3.0610    -1.7430     0.5450 hn         1 X02       0.455800
     25 HN10         5.5600     0.3230     5.8430 hn         1 X02       0.447300
     26 HN1A         3.9670    -0.1890     6.2950 hn         1 X02       0.447300
     27 H13          7.4540    -4.5950     6.5100 ha         1 X02       0.145500
     28 H14          8.8370    -6.4610     5.6920 ha         1 X02       0.132000
     29 H15          9.3370    -6.6670     3.2880 ha         1 X02       0.129000
     30 H16          8.4510    -5.0160     1.6900 ha         1 X02       0.132000
     31 H17          7.0630    -3.1450     2.4880 ha         1 X02       0.145500
@<TRIPOS>BOND
     1     1     2 2
     2     2     3 1
     3     3     4 1
     4     4     5 1
     5     5     6 2
     6     5     9 1
     7     6     7 1
     8     7     8 2
     9     7    10 1
    10     8     9 1
    11     8    11 1
    12    11    12 1
    13    11    18 2
    14    12    13 ar
    15    12    17 ar
    16    13    14 ar
    17    14    15 ar
    18    15    16 ar
    19    16    17 ar
    20     1    19 1
    21     1    20 1
    22     2    21 1
    23     3    22 1
    24     3    23 1
    25     4    24 1
    26    10    25 1
    27    10    26 1
    28    13    27 1
    29    14    28 1
    30    15    29 1
    31    16    30 1
    32    17    31 1
@<TRIPOS>SUBSTRUCTURE
     1 X02         1 TEMP              0 ****  ****    0 ROOT
