@<TRIPOS>MOLECULE
X03
   41    42     1     0     0
SMALL
bcc


@<TRIPOS>ATOM
      1 N1           0.0000     0.0000     0.0000 nc         1 X03      -0.676800
      2 N2           1.2890     0.0000     0.0000 na         1 X03       0.651400
      3 C3           1.7490     0.0000     1.2620 cc         1 X03      -0.340600
      4 C4           0.6710    -0.0010     2.0830 cd         1 X03      -0.148600
      5 C5          -0.4550    -0.0000     1.2420 cd         1 X03       0.204800
      6 C6          -1.8700     0.0010     1.6630 c          1 X03       0.588600
      7 N7          -2.8490     0.0030     0.7370 ns         1 X03      -0.380300
      8 N8          -4.1590     0.0040     1.1260 nz         1 X03       0.285400
      9 O9          -2.1520     0.0020     2.8460 o          1 X03      -0.595100
     10 C10          3.1760     0.0050     1.7470 c3         1 X03       0.082900
     11 C11          3.1810     0.4230     3.2230 c3         1 X03      -0.040400
     12 C12          2.1610    -0.4130     4.0000 c3         1 X03      -0.042700
     13 C13          0.7410    -0.0050     3.5850 c3         1 X03       0.043900
     14 C14          2.3430    -0.1760     5.5000 c3         1 X03      -0.062000
     15 C15          3.7570    -0.5850     5.9140 c3         1 X03      -0.028400
     16 C16          3.9390    -0.3470     7.4140 c3         1 X03      -0.009100
     17 C17          2.1280     1.3070     5.8110 c3         1 X03      -0.011100
     18 C18          1.3230    -1.0130     6.2750 c3         1 X03      -0.011100
     19 HN2          1.8630     0.0000    -0.8200 hn         1 X03       0.145700
     20 HN7         -2.6160     0.0020    -0.2370 hn         1 X03       0.283500
     21 HN8         -4.7470     0.0070     0.3160 hn         1 X03       0.218467
     22 HN8A        -4.3460    -0.8140     1.6710 hn         1 X03       0.218467
     23 H10          3.5970    -0.9880     1.6490 hc         1 X03       0.026700
     24 H10A         3.7560     0.7130     1.1670 hc         1 X03       0.026700
     25 H11          4.1690     0.2610     3.6390 hc         1 X03       0.037700
     26 H11A         2.9200     1.4710     3.3010 hc         1 X03       0.037700
     27 H12          2.3120    -1.4620     3.7750 hc         1 X03       0.037700
     28 H13          0.0280    -0.7190     3.9800 hc         1 X03       0.046700
     29 H13A         0.5220     0.9860     3.9630 hc         1 X03       0.046700
     30 H15          3.9080    -1.6350     5.6940 hc         1 X03       0.019200
     31 H15A         4.4790     0.0060     5.3640 hc         1 X03       0.019200
     32 H16          3.4980     0.6050     7.6840 hc         1 X03       0.010033
     33 H16A         3.4520    -1.1400     7.9670 hc         1 X03       0.010033
     34 H16B         4.9950    -0.3360     7.6520 hc         1 X03       0.010033
     35 H17          1.9850     1.4350     6.8770 hc         1 X03       0.013033
     36 H17A         2.9950     1.8720     5.4920 hc         1 X03       0.013033
     37 H17B         1.2510     1.6630     5.2840 hc         1 X03       0.013033
     38 H18          1.5300    -0.9430     7.3360 hc         1 X03       0.013033
     39 H18A         0.3250    -0.6410     6.0770 hc         1 X03       0.013033
     40 H18B         1.3910    -2.0480     5.9620 hc         1 X03       0.013033
     41 H83         -4.3390     0.8130     1.6880 hn         1 X03       0.218467
@<TRIPOS>BOND
     1     1     2 1   
     2     1     5 2   
     3     2     3 1   
     4     2    19 1   
     5     3     4 2   
     6     3    10 1   
     7     4     5 1   
     8     4    13 1   
     9     5     6 1   
    10     6     7 1   
    11     6     9 2   
    12     7     8 1   
    13     7    20 1   
    14     8    21 1   
    15     8    22 1   
    16     8    41 1   
    17    10    11 1   
    18    10    23 1   
    19    10    24 1   
    20    11    12 1   
    21    11    25 1   
    22    11    26 1   
    23    12    13 1   
    24    12    14 1   
    25    12    27 1   
    26    13    28 1   
    27    13    29 1   
    28    14    15 1   
    29    14    17 1   
    30    14    18 1   
    31    15    16 1   
    32    15    30 1   
    33    15    31 1   
    34    16    32 1   
    35    16    33 1   
    36    16    34 1   
    37    17    35 1   
    38    17    36 1   
    39    17    37 1   
    40    18    38 1   
    41    18    39 1   
    42    18    40 1   
@<TRIPOS>SUBSTRUCTURE
     1 X03         1 TEMP              0 ****  ****    0 ROOT
