@<TRIPOS>MOLECULE
molecule
   41    42     1     0     0
SMALL
bcc


@<TRIPOS>ATOM
      1 N1           0.0000     0.0000     0.0000 nc         1 X03      -0.525800
      2 N2           1.2890     0.0000     0.0000 na         1 X03       0.080400
      3 C3           1.7490     0.0000     1.2620 cc         1 X03      -0.117600
      4 C4           0.6710    -0.0010     2.0830 cd         1 X03      -0.179600
      5 C5          -0.4550    -0.0000     1.2420 cd         1 X03       0.233800
      6 C6          -1.8700     0.0010     1.6630 c          1 X03       0.625600
      7 N7          -2.8490     0.0030     0.7370 ns         1 X03      -0.521300
      8 N8          -4.1590     0.0040     1.1260 nz         1 X03      -0.533600
      9 O9          -2.1520     0.0020     2.8460 o          1 X03      -0.552100
     10 C10          3.1760     0.0050     1.7470 c3         1 X03      -0.012100
     11 C11          3.1810     0.4230     3.2230 c3         1 X03      -0.078400
     12 C12          2.1610    -0.4130     4.0000 c3         1 X03      -0.062700
     13 C13          0.7410    -0.0050     3.5850 c3         1 X03      -0.008100
     14 C14          2.3430    -0.1760     5.5000 c3         1 X03      -0.063000
     15 C15          3.7570    -0.5850     5.9140 c3         1 X03      -0.075400
     16 C16          3.9390    -0.3470     7.4140 c3         1 X03      -0.095100
     17 C17          2.1280     1.3070     5.8110 c3         1 X03      -0.087600
     18 C18          1.3230    -1.0130     6.2750 c3         1 X03      -0.087600
     19 HN2          1.8630     0.0000    -0.8200 hn         1 X03       0.352700
     20 HN7         -2.6160     0.0020    -0.2370 hn         1 X03       0.402500
     21 HN8         -4.7470     0.0070     0.3160 hn         1 X03       0.468467
     22 HN8A        -4.3460    -0.8140     1.6710 hn         1 X03       0.468467
     23 H10          3.5970    -0.9880     1.6490 hc         1 X03       0.065700
     24 H10A         3.7560     0.7130     1.1670 hc         1 X03       0.065700
     25 H11          4.1690     0.2610     3.6390 hc         1 X03       0.063200
     26 H11A         2.9200     1.4710     3.3010 hc         1 X03       0.063200
     27 H12          2.3120    -1.4620     3.7750 hc         1 X03       0.059700
     28 H13          0.0280    -0.7190     3.9800 hc         1 X03       0.071200
     29 H13A         0.5220     0.9860     3.9630 hc         1 X03       0.071200
     30 H15          3.9080    -1.6350     5.6940 hc         1 X03       0.043200
     31 H15A         4.4790     0.0060     5.3640 hc         1 X03       0.043200
     32 H16          3.4980     0.6050     7.6840 hc         1 X03       0.039367
     33 H16A         3.4520    -1.1400     7.9670 hc         1 X03       0.039367
     34 H16B         4.9950    -0.3360     7.6520 hc         1 X03       0.039367
     35 H17          1.9850     1.4350     6.8770 hc         1 X03       0.039033
     36 H17A         2.9950     1.8720     5.4920 hc         1 X03       0.039033
     37 H17B         1.2510     1.6630     5.2840 hc         1 X03       0.039033
     38 H18          1.5300    -0.9430     7.3360 hc         1 X03       0.039033
     39 H18A         0.3250    -0.6410     6.0770 hc         1 X03       0.039033
     40 H18B         1.3910    -2.0480     5.9620 hc         1 X03       0.039033
     41 H83         -4.3390     0.8130     1.6880 hn         1 X03       0.468467
@<TRIPOS>BOND
     1     1     2 1
     2     1     5 2
     3     2     3 1
     4     3     4 2
     5     3    10 1
     6     4     5 1
     7     4    13 1
     8     5     6 1
     9     6     7 1
    10     6     9 2
    11     7     8 1
    12    10    11 1
    13    11    12 1
    14    12    13 1
    15    12    14 1
    16    14    15 1
    17    14    17 1
    18    14    18 1
    19    15    16 1
    20     2    19 1
    21     7    20 1
    22     8    21 1
    23     8    22 1
    24    10    23 1
    25    10    24 1
    26    11    25 1
    27    11    26 1
    28    12    27 1
    29    13    28 1
    30    13    29 1
    31    15    30 1
    32    15    31 1
    33    16    32 1
    34    16    33 1
    35    16    34 1
    36    17    35 1
    37    17    36 1
    38    17    37 1
    39    18    38 1
    40    18    39 1
    41    18    40 1
    42    41     8 1
@<TRIPOS>SUBSTRUCTURE
     1 X03         1 TEMP              0 ****  ****    0 ROOT
