@<TRIPOS>MOLECULE
molecule
   26    26     1     0     0
SMALL
bcc


@<TRIPOS>ATOM
      1 P            0.0000     0.0000     0.0000 p5         1 X04       1.141900
      2 OP1          1.4780     0.0000     0.0000 o          1 X04      -0.901833
      3 OP2         -0.5360     0.0000     1.5180 o          1 X04      -0.901833
      4 OP3         -0.5380    -1.3140    -0.7570 o          1 X04      -0.901833
      5 OP4         -0.5380     1.3140    -0.7590 os         1 X04      -0.528200
      6 C5A         -0.0320     1.2560    -2.0930 c3         1 X04       0.186700
      7 C5          -0.5010     2.4640    -2.8600 ca         1 X04      -0.103600
      8 C6           0.2560     3.6280    -2.8760 ca         1 X04       0.662200
      9 N2           1.4580     3.6740    -2.1740 nv         1 X04      -1.062500
     10 N1          -0.1490     4.6940    -3.5470 nb         1 X04      -0.721000
     11 C2          -1.2760     4.7060    -4.2280 ca         1 X04       0.359600
     12 C2A         -1.6820     5.9530    -4.9720 c3         1 X04      -0.125400
     13 C3          -2.0980     3.5910    -4.2650 ca         1 X04       0.003800
     14 O3          -3.2590     3.6130    -4.9690 oh         1 X04      -0.509100
     15 C4          -1.7060     2.4310    -3.5700 ca         1 X04      -0.185600
     16 C4A         -2.5440     1.2220    -3.5840 c          1 X04       0.591500
     17 O1          -3.5850     1.2120    -4.2050 o          1 X04      -0.572100
     18 H5A1         1.0510     1.2420    -2.0680 h1         1 X04       0.055700
     19 H5A2        -0.3940     0.3570    -2.5780 h1         1 X04       0.055700
     20 HN21         1.4520     3.7700    -1.1780 hn         1 X04       0.437800
     21 HN22         2.3280     3.6470    -2.6680 hn         1 X04       0.437800
     22 H2A1        -2.6750     6.2520    -4.6600 hc         1 X04       0.034033
     23 H2A2        -0.9790     6.7480    -4.7530 hc         1 X04       0.034033
     24 H2A3        -1.6810     5.7550    -6.0370 hc         1 X04       0.034033
     25 HO3         -3.0970     3.3290    -5.8530 ho         1 X04       0.404000
     26 H4A         -2.2520     0.3550    -3.0030 h4         1 X04       0.073200
@<TRIPOS>BOND
     1     1     2 1
     2     1     3 1
     3     1     4 1
     4     1     5 1
     5     5     6 1
     6     6     7 1
     7     6    18 1
     8     6    19 1
     9     7     8 ar
    10     7    15 ar
    11     8     9 1
    12     8    10 ar
    13     9    20 1
    14     9    21 1
    15    10    11 ar
    16    11    12 1
    17    11    13 ar
    18    12    22 1
    19    12    23 1
    20    12    24 1
    21    13    14 1
    22    13    15 ar
    23    14    25 1
    24    15    16 1
    25    16    17 2
    26    16    26 1
@<TRIPOS>SUBSTRUCTURE
     1 X04         1 TEMP              0 ****  ****    0 ROOT
