@<TRIPOS>MOLECULE
X05
   30    31     1     0     0
SMALL
bcc


@<TRIPOS>ATOM
      1 OAD          0.0000     0.0000     0.0000 oh         1 X05      -0.569800
      2 CAK          1.4290     0.0000     0.0000 c3         1 X05       0.200100
      3 CAL          1.9460     0.0000     1.4330 c3         1 X05       0.095500
      4 CAI          1.5620    -1.2500     2.2310 c3         1 X05       0.212100
      5 OAB          1.3450    -2.3570     1.3540 oh         1 X05      -0.581800
      6 CAE          2.7900    -1.5120     3.1400 c3         1 X05      -0.059400
      7 CAF          3.8200    -0.4200     2.7450 c3         1 X05       0.167800
      8 NAM          3.4300    -0.0600     1.3730 n3         1 X05      -0.524600
      9 CAG          3.9440     1.2040     0.8600 c3         1 X05       0.164800
     10 CAH          3.4750     1.3450    -0.5950 c3         1 X05      -0.092500
     11 NAA          3.9300     2.6370    -1.1260 nz         1 X05       0.079400
     12 CAJ          1.9510     1.2740    -0.6810 c3         1 X05       0.146100
     13 OAC          1.5560     1.2710    -2.0550 oh         1 X05      -0.590800
     14 HAD         -0.3140    -0.5230    -0.7190 ho         1 X05       0.416000
     15 HAK          1.8020    -0.8730    -0.5230 h1         1 X05       0.060700
     16 HAL          1.6250     0.8950     1.9520 h1         1 X05       0.032700
     17 HAJ          1.5270     2.1400    -0.1860 h1         1 X05       0.020700
     18 HAI          0.6820    -1.0570     2.8320 h1         1 X05       0.023700
     19 HAB          0.7870    -2.9890     1.7770 ho         1 X05       0.407000
     20 HAE1         2.5130    -1.4070     4.1820 hc         1 X05       0.042700
     21 HAE2         3.1960    -2.4980     2.9480 hc         1 X05       0.042700
     22 HAF1         4.8250    -0.8220     2.7600 h1         1 X05       0.022200
     23 HAF2         3.7350     0.4380     3.4010 h1         1 X05       0.022200
     24 HAG1         5.0270     1.2000     0.8970 h1         1 X05       0.024200
     25 HAG2         3.5540     2.0230     1.4520 h1         1 X05       0.024200
     26 HAH          3.9010     0.5420    -1.1850 hx         1 X05       0.116700
     27 HAA1         3.4960     3.3800    -0.6140 hn         1 X05       0.225133
     28 HAA2         3.6800     2.7070    -2.0930 hn         1 X05       0.225133
     29 HAC          0.8340     1.8650    -2.1760 ho         1 X05       0.424000
     30 HAA3         4.9260     2.6990    -1.0450 hn         1 X05       0.225133
@<TRIPOS>BOND
     1     1     2 1   
     2     1    14 1   
     3     2     3 1   
     4     2    12 1   
     5     2    15 1   
     6     3     4 1   
     7     3     8 1   
     8     3    16 1   
     9     4     5 1   
    10     4     6 1   
    11     4    18 1   
    12     5    19 1   
    13     6     7 1   
    14     6    20 1   
    15     6    21 1   
    16     7     8 1   
    17     7    22 1   
    18     7    23 1   
    19     8     9 1   
    20     9    10 1   
    21     9    24 1   
    22     9    25 1   
    23    10    11 1   
    24    10    12 1   
    25    10    26 1   
    26    11    27 1   
    27    11    28 1   
    28    11    30 1   
    29    12    13 1   
    30    12    17 1   
    31    13    29 1   
@<TRIPOS>SUBSTRUCTURE
     1 X05         1 TEMP              0 ****  ****    0 ROOT
