@<TRIPOS>MOLECULE
X06
   24    25     1     0     0
SMALL
bcc


@<TRIPOS>ATOM
      1 N01          0.0000     0.0000     0.0000 nb         1 X06      -0.664500
      2 N02          0.0010     0.0010     2.3020 nb         1 X06      -0.693000
      3 N03          1.9950     0.0000     1.1520 nb         1 X06      -0.664500
      4 C06          2.0720    -0.0030    -3.6850 ca         1 X06      -0.085600
      5 C07          3.4570    -0.0030    -3.6850 ca         1 X06      -0.039000
      6 C08          4.1550    -0.0030    -2.4920 ca         1 X06      -0.199000
      7 C09          3.4700    -0.0010    -1.2870 ca         1 X06       0.192100
      8 C10          2.0710    -0.0010    -1.2820 cp         1 X06      -0.201500
      9 C11          1.3770    -0.0020    -2.4920 ca         1 X06      -0.021000
     10 C12          1.3300     0.0000     0.0000 cp         1 X06       0.715500
     11 C13         -0.6640     0.0000     1.1510 ca         1 X06       0.752900
     12 C14          1.3300     0.0010     2.3030 ca         1 X06       0.752900
     13 Cl16         1.2080     0.0030    -5.1900 cl         1 X06      -0.023400
     14 HN04        -2.5460    -0.8660     1.1550 hn         1 X06       0.283300
     15 HN0A        -2.5450     0.8680     1.1550 hn         1 X06       0.283300
     16 HN05         2.2550    -0.8640     3.9410 hn         1 X06       0.283300
     17 HN0B         2.2480     0.8690     3.9440 hn         1 X06       0.283300
     18 H07          3.9960    -0.0040    -4.6250 ha         1 X06       0.112000
     19 H08          5.2380    -0.0020    -2.4990 ha         1 X06       0.116000
     20 H11          0.2930    -0.0020    -2.4950 ha         1 X06       0.137000
     21 HO15         4.9200     0.5450    -0.1980 ho         1 X06       0.396000
     22 N04         -2.0450     0.0010     1.1530 nv         1 X06      -0.635500
     23 N05          2.0200     0.0020     3.4990 nv         1 X06      -0.635500
     24 O15          4.1550    -0.0010    -0.1150 oh         1 X06      -0.446100
@<TRIPOS>BOND
     1     1    10 ar  
     2     1    11 ar  
     3     2    11 ar  
     4     2    12 ar  
     5     3    10 ar  
     6     3    12 ar  
     7     4     5 ar  
     8     4     9 ar  
     9     4    13 1   
    10     5     6 ar  
    11     5    18 1   
    12     6     7 ar  
    13     6    19 1   
    14     7     8 ar  
    15     7    24 1   
    16     8     9 ar  
    17     8    10 1   
    18     9    20 1   
    19    11    22 1   
    20    12    23 1   
    21    14    22 1   
    22    15    22 1   
    23    16    23 1   
    24    17    23 1   
    25    21    24 1   
@<TRIPOS>SUBSTRUCTURE
     1 X06         1 TEMP              0 ****  ****    0 ROOT
