@<TRIPOS>MOLECULE
molecule
   24    25     1     0     0
SMALL
bcc


@<TRIPOS>ATOM
      1 N01          0.0000     0.0000     0.0000 nb         1 X06      -0.788500
      2 N02          0.0010     0.0010     2.3020 nb         1 X06      -0.816000
      3 N03          1.9950     0.0000     1.1520 nb         1 X06      -0.788500
      4 C06          2.0720    -0.0030    -3.6850 ca         1 X06      -0.018600
      5 C07          3.4570    -0.0030    -3.6850 ca         1 X06      -0.068000
      6 C08          4.1550    -0.0030    -2.4920 ca         1 X06      -0.216000
      7 C09          3.4700    -0.0010    -1.2870 ca         1 X06       0.175100
      8 C10          2.0710    -0.0010    -1.2820 cp         1 X06      -0.173500
      9 C11          1.3770    -0.0020    -2.4920 ca         1 X06      -0.044000
     10 C12          1.3300     0.0000     0.0000 cp         1 X06       0.796500
     11 C13         -0.6640     0.0000     1.1510 ca         1 X06       0.975400
     12 C14          1.3300     0.0010     2.3030 ca         1 X06       0.975400
     13 Cl16         1.2080     0.0030    -5.1900 cl         1 X06      -0.103400
     14 HN04        -2.5460    -0.8660     1.1550 hn         1 X06       0.448550
     15 HN0A        -2.5450     0.8680     1.1550 hn         1 X06       0.448550
     16 HN05         2.2550    -0.8640     3.9410 hn         1 X06       0.448550
     17 HN0B         2.2480     0.8690     3.9440 hn         1 X06       0.448550
     18 H07          3.9960    -0.0040    -4.6250 ha         1 X06       0.147000
     19 H08          5.2380    -0.0020    -2.4990 ha         1 X06       0.143000
     20 H11          0.2930    -0.0020    -2.4950 ha         1 X06       0.174000
     21 HO15         4.9200     0.5450    -0.1980 ho         1 X06       0.417000
     22 N04         -2.0450     0.0010     1.1530 nv         1 X06      -1.059500
     23 N05          2.0200     0.0020     3.4990 nv         1 X06      -1.059500
     24 O15          4.1550    -0.0010    -0.1150 oh         1 X06      -0.461100
@<TRIPOS>BOND
     1     1    10 ar
     2     1    11 ar
     3     2    11 ar
     4     2    12 ar
     5     3    10 ar
     6     3    12 ar
     7    22    11 1
     8    23    12 1
     9     4     5 ar
    10     4     9 ar
    11     4    13 1
    12     5     6 ar
    13     6     7 ar
    14     7     8 ar
    15     7    24 1
    16     8     9 ar
    17     8    10 1
    18    22    14 1
    19    22    15 1
    20    23    16 1
    21    23    17 1
    22     5    18 1
    23     6    19 1
    24     9    20 1
    25    24    21 1
@<TRIPOS>SUBSTRUCTURE
     1 X06         1 TEMP              0 ****  ****    0 ROOT
