@<TRIPOS>MOLECULE
X07
   33    34     1     0     0
SMALL
bcc


@<TRIPOS>ATOM
      1 C1           0.0000     0.0000     0.0000 ca         1 X07      -0.197000
      2 C2           1.3800     0.0000     0.0000 ca         1 X07       0.093000
      3 C3           2.0820     0.0000     1.1950 ca         1 X07      -0.480200
      4 C4           1.4100    -0.0010     2.3970 ca         1 X07       0.058000
      5 C5           0.0130    -0.0010     2.4150 ca         1 X07      -0.347600
      6 C6          -0.6960    -0.0010     1.2040 ca         1 X07       0.172600
      7 N7          -2.0850    -0.0010     1.2070 nu         1 X07      -0.328600
      8 C8          -0.7130    -0.0030     3.6980 c          1 X07       0.372700
      9 N9          -0.0340    -0.1240     4.8560 nz         1 X07       0.206600
     10 O10         -1.9240     0.1050     3.7120 o          1 X07      -0.501100
     11 N11          3.5620    -0.0000     1.1790 no         1 X07       1.046200
     12 O12          4.1590     0.0000     0.1170 o          1 X07      -0.429500
     13 O13          4.1820    -0.0010     2.2260 o          1 X07      -0.429500
     14 C14         -2.8200    -0.1240    -0.0550 c3         1 X07       0.214100
     15 C15         -6.9730     0.0320     0.7150 ca         1 X07       0.438200
     16 N16         -6.2850     1.1330     0.4790 nb         1 X07      -0.566000
     17 C17         -4.9890     1.1020     0.2360 ca         1 X07       0.433200
     18 C18         -4.3010    -0.0970     0.2230 ca         1 X07      -0.283600
     19 C19         -4.9910    -1.2750     0.4670 ca         1 X07      -0.045000
     20 C20         -6.3520    -1.2020     0.7170 ca         1 X07      -0.213300
     21 H1          -0.5410     0.0000    -0.9380 ha         1 X07       0.149000
     22 H2           1.9180     0.0010    -0.9400 ha         1 X07       0.149000
     23 H4           1.9640    -0.0010     3.3280 ha         1 X07       0.105000
     24 HN7         -2.5830     0.1160     2.0660 hn         1 X07       0.346800
     25 HN9          0.5680     0.6670     4.9730 hn         1 X07       0.247800
     26 HN9A        -0.6800    -0.1680     5.6190 hn         1 X07       0.247800
     27 H14         -2.5600     0.7020    -0.7060 h1         1 X07       0.038700
     28 H14A        -2.5600    -1.0590    -0.5360 h1         1 X07       0.038700
     29 H19         -4.4780    -2.2290     0.4630 ha         1 X07       0.111000
     30 H20         -6.9220    -2.1020     0.9120 ha         1 X07       0.126000
     31 H15         -8.0360     0.0970     0.9100 h4         1 X07      -0.006900
     32 H93          0.5130    -0.9620     4.8360 hn         1 X07       0.247800
     33 H17         -4.4570     2.0260     0.0470 h4         1 X07      -0.016900
@<TRIPOS>BOND
     1     1     2 ar  
     2     1     6 ar  
     3     1    21 1   
     4     2     3 ar  
     5     2    22 1   
     6     3     4 ar  
     7     3    11 1   
     8     4     5 ar  
     9     4    23 1   
    10     5     6 ar  
    11     5     8 1   
    12     6     7 1   
    13     7    14 1   
    14     7    24 1   
    15     8     9 1   
    16     8    10 2   
    17     9    25 1   
    18     9    26 1   
    19     9    32 1   
    20    11    12 1   
    21    11    13 1   
    22    14    18 1   
    23    14    27 1   
    24    14    28 1   
    25    15    16 ar  
    26    15    20 ar  
    27    15    31 1   
    28    16    17 ar  
    29    17    18 ar  
    30    17    33 1   
    31    18    19 ar  
    32    19    20 ar  
    33    19    29 1   
    34    20    30 1   
@<TRIPOS>SUBSTRUCTURE
     1 X07         1 TEMP              0 ****  ****    0 ROOT
