@<TRIPOS>MOLECULE
molecule
   30    31     1     0     0
SMALL
bcc


@<TRIPOS>ATOM
      1 OAC          0.0000     0.0000     0.0000 oh         1 X09      -0.589800
      2 CAI          1.4290     0.0000     0.0000 c3         1 X09       0.105100
      3 CAJ          1.9770     0.0000     1.4510 c3         1 X09       0.132100
      4 OAD          2.1100     1.3330     1.9490 oh         1 X09      -0.584800
      5 CAL          3.3630    -0.6620     1.2630 c3         1 X09       0.149500
      6 CAH          3.7610    -1.3800     2.5620 c3         1 X09       0.145100
      7 OAB          2.7930    -1.1310     3.5840 oh         1 X09      -0.603800
      8 CAF          3.7840    -2.8840     2.2020 c3         1 X09      -0.106400
      9 CAG          2.8520    -2.9580     0.9680 c3         1 X09       0.128800
     10 NAM          3.1490    -1.7050     0.2290 n3         1 X09      -0.731600
     11 CAK          1.9750    -1.3220    -0.5780 c3         1 X09       0.098500
     12 CAE          2.3890    -1.1190    -2.0360 c3         1 X09       0.111800
     13 NAA          3.0480    -2.3350    -2.5320 nz         1 X09      -0.802600
     14 HAC         -0.3140     0.7850    -0.4170 ho         1 X09       0.424000
     15 HAI          1.8180     0.8460    -0.5530 h1         1 X09       0.063700
     16 HAJ          1.3500    -0.6010     2.0980 h1         1 X09       0.099700
     17 HAK          1.2160    -2.0920    -0.5090 h1         1 X09       0.089700
     18 HAD          1.3380     1.5640     2.4390 ho         1 X09       0.427000
     19 HAL          4.1130     0.0580     0.9560 h1         1 X09       0.104700
     20 HAH          4.7440    -1.0580     2.8810 h1         1 X09       0.064700
     21 HAB          3.2240    -1.0920     4.4220 ho         1 X09       0.425000
     22 HAF1         3.3880    -3.4770     3.0160 hc         1 X09       0.075200
     23 HAF2         4.7880    -3.1980     1.9410 hc         1 X09       0.075200
     24 HAG1         1.8140    -2.9790     1.2780 h1         1 X09       0.054200
     25 HAG2         3.0940    -3.8220     0.3620 h1         1 X09       0.054200
     26 HAE1         3.0750    -0.2830    -2.1040 hx         1 X09       0.109700
     27 HAE2         1.5110    -0.9150    -2.6360 hx         1 X09       0.109700
     28 HAA1         3.1720    -2.2670    -3.5220 hn         1 X09       0.457467
     29 HAA2         2.4810    -3.1320    -2.3200 hn         1 X09       0.457467
     30 HAA3         3.9410    -2.4340    -2.0900 hn         1 X09       0.457467
@<TRIPOS>BOND
     1     1     2 1
     2     2     3 1
     3     2    11 1
     4     3     4 1
     5     3     5 1
     6     5     6 1
     7     5    10 1
     8     6     7 1
     9     6     8 1
    10     8     9 1
    11     9    10 1
    12    10    11 1
    13    11    12 1
    14    12    13 1
    15     1    14 1
    16     2    15 1
    17     3    16 1
    18    11    17 1
    19     4    18 1
    20     5    19 1
    21     6    20 1
    22     7    21 1
    23     8    22 1
    24     8    23 1
    25     9    24 1
    26     9    25 1
    27    12    26 1
    28    12    27 1
    29    13    28 1
    30    13    29 1
    31    30    13 1
@<TRIPOS>SUBSTRUCTURE
     1 X09         1 TEMP              0 ****  ****    0 ROOT
