@<TRIPOS>MOLECULE
X0A
   34    36     1     0     0
SMALL
bcc


@<TRIPOS>ATOM
      1 N01          0.0000     0.0000     0.0000 nb         1 X0A      -0.753000
      2 N02         -0.0010    -0.0020     2.3020 nb         1 X0A      -0.802000
      3 N03          1.9950     0.0000     1.1530 nb         1 X0A      -0.785000
      4 C06          4.1520     0.0010    -2.4830 ca         1 X0A      -0.095600
      5 C07          3.4590     0.0020    -3.6830 ca         1 X0A      -0.031000
      6 C08          2.0780     0.0020    -3.6910 ca         1 X0A      -0.219000
      7 C09          1.3750     0.0010    -2.4970 ca         1 X0A       0.202100
      8 C10          2.0710     0.0010    -1.2830 cp         1 X0A      -0.202500
      9 C11          3.4650    -0.0050    -1.2860 ca         1 X0A      -0.013000
     10 C12          1.3310     0.0000     0.0000 cp         1 X0A       0.783500
     11 C13         -0.6650    -0.0010     1.1510 ca         1 X0A       0.765900
     12 C14          1.3290    -0.0010     2.3040 ca         1 X0A       0.763900
     13 C15          1.3230    -0.1180     4.7080 ca         1 X0A      -0.003400
     14 C16          0.1660    -0.8840     4.7730 ca         1 X0A      -0.120500
     15 C17         -0.5190    -0.9980     5.9680 ca         1 X0A      -0.083000
     16 C18         -0.0540    -0.3490     7.0970 ca         1 X0A      -0.119000
     17 C19          1.0980     0.4140     7.0350 ca         1 X0A      -0.083000
     18 C20          1.7900     0.5270     5.8460 ca         1 X0A      -0.120500
     19 Cl22         5.8870     0.0030    -2.4860 cl         1 X0A      -0.026400
     20 HN04        -2.5460    -0.3870     0.3750 hn         1 X0A       0.276300
     21 HN0A        -2.5460     0.4000     1.9190 hn         1 X0A       0.276300
     22 HN05         3.0150     0.0950     3.5040 hn         1 X0A       0.293800
     23 H07          4.0030     0.0040    -4.6190 ha         1 X0A       0.111000
     24 H08          1.5430     0.0020    -4.6330 ha         1 X0A       0.114000
     25 H11          4.0100    -0.0050    -0.3490 ha         1 X0A       0.135000
     26 H16         -0.1990    -1.3930     3.8890 ha         1 X0A       0.121000
     27 H17         -1.4210    -1.5950     6.0200 ha         1 X0A       0.101000
     28 H18         -0.5940    -0.4380     8.0320 ha         1 X0A       0.102000
     29 H19          1.4610     0.9190     7.9230 ha         1 X0A       0.101000
     30 H20          2.6930     1.1250     5.7980 ha         1 X0A       0.121000
     31 HO21        -0.2920     0.1320    -3.3850 ho         1 X0A       0.389000
     32 N04         -2.0460    -0.0010     1.1510 nv         1 X0A      -0.499500
     33 N05          2.0190    -0.0010     3.5000 nu         1 X0A      -0.272300
     34 O21          0.0180     0.0010    -2.5040 oh         1 X0A      -0.430100
@<TRIPOS>BOND
     1     1    10 ar  
     2     1    11 ar  
     3     2    11 ar  
     4     2    12 ar  
     5     3    10 ar  
     6     3    12 ar  
     7     4     5 ar  
     8     4     9 ar  
     9     4    19 1   
    10     5     6 ar  
    11     5    23 1   
    12     6     7 ar  
    13     6    24 1   
    14     7     8 ar  
    15     7    34 1   
    16     8     9 ar  
    17     8    10 1   
    18     9    25 1   
    19    11    32 1   
    20    12    33 1   
    21    13    14 ar  
    22    13    18 ar  
    23    13    33 1   
    24    14    15 ar  
    25    14    26 1   
    26    15    16 ar  
    27    15    27 1   
    28    16    17 ar  
    29    16    28 1   
    30    17    18 ar  
    31    17    29 1   
    32    18    30 1   
    33    20    32 1   
    34    21    32 1   
    35    22    33 1   
    36    31    34 1   
@<TRIPOS>SUBSTRUCTURE
     1 X0A         1 TEMP              0 ****  ****    0 ROOT
