@<TRIPOS>MOLECULE
molecule
   34    36     1     0     0
SMALL
bcc


@<TRIPOS>ATOM
      1 N01          0.0000     0.0000     0.0000 nb         1 X0A      -0.841000
      2 N02         -0.0010    -0.0020     2.3020 nb         1 X0A      -0.893000
      3 N03          1.9950     0.0000     1.1530 nb         1 X0A      -0.878000
      4 C06          4.1520     0.0010    -2.4830 ca         1 X0A      -0.029600
      5 C07          3.4590     0.0020    -3.6830 ca         1 X0A      -0.058000
      6 C08          2.0780     0.0020    -3.6910 ca         1 X0A      -0.236000
      7 C09          1.3750     0.0010    -2.4970 ca         1 X0A       0.187100
      8 C10          2.0710     0.0010    -1.2830 cp         1 X0A      -0.176500
      9 C11          3.4650    -0.0050    -1.2860 ca         1 X0A      -0.034000
     10 C12          1.3310     0.0000     0.0000 cp         1 X0A       0.844500
     11 C13         -0.6650    -0.0010     1.1510 ca         1 X0A       0.994900
     12 C14          1.3290    -0.0010     2.3040 ca         1 X0A       0.992900
     13 C15          1.3230    -0.1180     4.7080 ca         1 X0A       0.157600
     14 C16          0.1660    -0.8840     4.7730 ca         1 X0A      -0.144000
     15 C17         -0.5190    -0.9980     5.9680 ca         1 X0A      -0.113000
     16 C18         -0.0540    -0.3490     7.0970 ca         1 X0A      -0.148000
     17 C19          1.0980     0.4140     7.0350 ca         1 X0A      -0.113000
     18 C20          1.7900     0.5270     5.8460 ca         1 X0A      -0.144000
     19 Cl22         5.8870     0.0030    -2.4860 cl         1 X0A      -0.105400
     20 HN04        -2.5460    -0.3870     0.3750 hn         1 X0A       0.452300
     21 HN0A        -2.5460     0.4000     1.9190 hn         1 X0A       0.452300
     22 HN05         3.0150     0.0950     3.5040 hn         1 X0A       0.468800
     23 H07          4.0030     0.0040    -4.6190 ha         1 X0A       0.146000
     24 H08          1.5430     0.0020    -4.6330 ha         1 X0A       0.140000
     25 H11          4.0100    -0.0050    -0.3490 ha         1 X0A       0.173000
     26 H16         -0.1990    -1.3930     3.8890 ha         1 X0A       0.145000
     27 H17         -1.4210    -1.5950     6.0200 ha         1 X0A       0.130000
     28 H18         -0.5940    -0.4380     8.0320 ha         1 X0A       0.128000
     29 H19          1.4610     0.9190     7.9230 ha         1 X0A       0.130000
     30 H20          2.6930     1.1250     5.7980 ha         1 X0A       0.145000
     31 HO21        -0.2920     0.1320    -3.3850 ho         1 X0A       0.413000
     32 N04         -2.0460    -0.0010     1.1510 nv         1 X0A      -0.992500
     33 N05          2.0190    -0.0010     3.5000 nu         1 X0A      -0.748300
     34 O21          0.0180     0.0010    -2.5040 oh         1 X0A      -0.447100
@<TRIPOS>BOND
     1     1    10 ar
     2     1    11 ar
     3    11     2 ar
     4     2    12 ar
     5    10     3 ar
     6     3    12 ar
     7    32    11 1
     8    32    20 1
     9    32    21 1
    10    12    33 1
    11    33    13 1
    12    33    22 1
    13     5     4 ar
    14     4    19 1
    15     4     9 ar
    16     6     5 ar
    17     5    23 1
    18     6     7 ar
    19     6    24 1
    20    34     7 1
    21     7     8 ar
    22     8     9 ar
    23     8    10 1
    24     9    25 1
    25    14    13 ar
    26    13    18 ar
    27    14    15 ar
    28    14    26 1
    29    15    16 ar
    30    15    27 1
    31    16    17 ar
    32    16    28 1
    33    18    17 ar
    34    17    29 1
    35    18    30 1
    36    34    31 1
@<TRIPOS>SUBSTRUCTURE
     1 X0A         1 TEMP              0 ****  ****    0 ROOT
