@<TRIPOS>MOLECULE
X0B
   70    75     1     0     0
SMALL
bcc


@<TRIPOS>ATOM
      1 O1           0.0000     0.0000     0.0000 o          1 X0B      -0.866300
      2 C19          1.3490     0.0000     0.0000 c          1 X0B       0.882100
      3 O            1.9570     0.0000     1.0530 o          1 X0B      -0.866300
      4 C18          2.0840     0.0010    -1.2750 cc         1 X0B       0.317800
      5 N3           1.4730     0.0010    -2.4520 nc         1 X0B      -0.450000
      6 C20          3.4460     0.0060    -1.3350 cd         1 X0B      -0.111700
      7 C21          4.3750     0.0120    -0.1480 c3         1 X0B       0.068900
      8 C22          4.6950    -1.4280     0.2560 c3         1 X0B      -0.030400
      9 C23          5.6390    -1.4220     1.4600 c3         1 X0B       0.194400
     10 O24          5.9380    -2.7680     1.8370 os         1 X0B      -0.274900
     11 C25          6.7700    -2.9410     2.8980 ca         1 X0B       0.237100
     12 C30          7.1020    -4.2200     3.3190 ca         1 X0B      -0.169000
     13 C29          7.9470    -4.3930     4.3980 ca         1 X0B      -0.024000
     14 C28          8.4610    -3.2930     5.0580 ca         1 X0B      -0.292300
     15 C31          9.3830    -3.4850     6.2350 c3         1 X0B       0.053100
     16 N4          10.7730    -3.5430     5.7630 nz         1 X0B       0.063400
     17 C27          8.1320    -2.0170     4.6400 ca         1 X0B      -0.024000
     18 C26          7.2910    -1.8380     3.5590 ca         1 X0B      -0.169000
     19 S1           3.9290     0.0050    -2.9760 ss         1 X0B      -0.399300
     20 C17          2.2480     0.0010    -3.4920 cd         1 X0B       0.459900
     21 C14          1.7880     0.0010    -4.8980 ca         1 X0B      -0.106500
     22 C15          2.7160     0.0020    -5.9410 ca         1 X0B      -0.093000
     23 C16          2.2900     0.0030    -7.2530 ca         1 X0B      -0.120000
     24 C11          0.9380     0.0060    -7.5540 ca         1 X0B      -0.080300
     25 C10          0.5130     0.0150    -8.9980 c3         1 X0B       0.037900
     26 C9          -0.9020    -0.5320    -9.1620 c3         1 X0B      -0.018400
     27 C8          -1.8600     0.2520    -8.2570 c3         1 X0B      -0.088700
     28 C13          0.4260    -0.0040    -5.1890 ca         1 X0B      -0.026000
     29 C12          0.0030     0.0020    -6.5180 ca         1 X0B      -0.124900
     30 C7          -1.4440    -0.0080    -6.8240 ce         1 X0B       0.366900
     31 N2          -2.3250    -0.2330    -5.8990 n2         1 X0B      -0.424400
     32 N1          -3.6900    -0.2370    -6.2160 nu         1 X0B      -0.141300
     33 C6          -4.6280    -0.4750    -5.2320 cc         1 X0B       0.492100
     34 S           -6.3660    -0.5100    -5.4870 ss         1 X0B      -0.271100
     35 C3          -6.6250    -0.8580    -3.7800 ca         1 X0B      -0.035100
     36 C2          -7.7950    -1.0570    -3.0520 ca         1 X0B      -0.050000
     37 C1          -7.7350    -1.3200    -1.7020 ca         1 X0B      -0.114000
     38 N           -4.3520    -0.7110    -3.9940 nd         1 X0B      -0.467100
     39 C4          -5.3790    -0.9210    -3.1480 ca         1 X0B       0.116400
     40 C5          -5.3420    -1.1930    -1.7640 ca         1 X0B      -0.045000
     41 C           -6.5050    -1.3860    -1.0620 ca         1 X0B      -0.096000
     42 H211         5.2910     0.5260    -0.4100 hc         1 X0B       0.040700
     43 H212         3.8980     0.5220     0.6800 hc         1 X0B       0.040700
     44 H221         5.1710    -1.9390    -0.5730 hc         1 X0B       0.038200
     45 H222         3.7790    -1.9430     0.5180 hc         1 X0B       0.038200
     46 H231         5.1630    -0.9120     2.2890 h1         1 X0B       0.007700
     47 H232         6.5560    -0.9090     1.1970 h1         1 X0B       0.007700
     48 H30          6.7000    -5.0830     2.8020 ha         1 X0B       0.145000
     49 H26          7.0340    -0.8380     3.2320 ha         1 X0B       0.145000
     50 H29          8.2070    -5.3920     4.7270 ha         1 X0B       0.099000
     51 H311         9.1340    -4.4090     6.7410 hx         1 X0B       0.075200
     52 H312         9.2690    -2.6550     6.9220 hx         1 X0B       0.075200
     53 H27          8.5370    -1.1560     5.1580 ha         1 X0B       0.099000
     54 H41N        10.8730    -4.2980     5.1140 hn         1 X0B       0.219800
     55 H42N        11.0090    -2.6810     5.3130 hn         1 X0B       0.219800
     56 H15          3.7760     0.0000    -5.7190 ha         1 X0B       0.110000
     57 H13         -0.2990     0.0880    -4.3900 ha         1 X0B       0.162000
     58 H16          3.0180     0.0040    -8.0540 ha         1 X0B       0.099000
     59 H101         1.1970    -0.5970    -9.5720 hc         1 X0B       0.016700
     60 H102         0.5430     1.0330    -9.3690 hc         1 X0B       0.016700
     61 H91C        -1.2130    -0.4240   -10.1950 hc         1 X0B       0.016200
     62 H92C        -0.9180    -1.5790    -8.8830 hc         1 X0B       0.016200
     63 H81C        -2.8700    -0.1120    -8.4060 hc         1 X0B       0.024700
     64 H82C        -1.7640     1.3100    -8.4690 hc         1 X0B       0.024700
     65 HA          -3.9860    -0.0470    -7.1530 hn         1 X0B       0.284800
     66 H2          -8.7560    -1.0060    -3.5510 ha         1 X0B       0.103000
     67 HB          -8.6480    -1.4740    -1.1390 ha         1 X0B       0.101000
     68 H           -6.4630    -1.5930     0.0000 ha         1 X0B       0.106000
     69 H5          -4.3890    -1.2470    -1.2520 ha         1 X0B       0.136000
     70 H43         11.3830    -3.6910     6.5420 hn         1 X0B       0.219800
@<TRIPOS>BOND
     1     1     2 1   
     2     2     3 1   
     3     2     4 1   
     4     4     5 1   
     5     4     6 2   
     6     5    20 2   
     7     6     7 1   
     8     6    19 1   
     9     7     8 1   
    10     7    42 1   
    11     7    43 1   
    12     8     9 1   
    13     8    44 1   
    14     8    45 1   
    15     9    10 1   
    16     9    46 1   
    17     9    47 1   
    18    10    11 1   
    19    11    12 ar  
    20    11    18 ar  
    21    12    13 ar  
    22    12    48 1   
    23    13    14 ar  
    24    13    50 1   
    25    14    15 1   
    26    14    17 ar  
    27    15    16 1   
    28    15    51 1   
    29    15    52 1   
    30    16    54 1   
    31    16    55 1   
    32    16    70 1   
    33    17    18 ar  
    34    17    53 1   
    35    18    49 1   
    36    19    20 1   
    37    20    21 1   
    38    21    22 ar  
    39    21    28 ar  
    40    22    23 ar  
    41    22    56 1   
    42    23    24 ar  
    43    23    58 1   
    44    24    25 1   
    45    24    29 ar  
    46    25    26 1   
    47    25    59 1   
    48    25    60 1   
    49    26    27 1   
    50    26    61 1   
    51    26    62 1   
    52    27    30 1   
    53    27    63 1   
    54    27    64 1   
    55    28    29 ar  
    56    28    57 1   
    57    29    30 1   
    58    30    31 2   
    59    31    32 1   
    60    32    33 1   
    61    32    65 1   
    62    33    34 1   
    63    33    38 2   
    64    34    35 1   
    65    35    36 ar  
    66    35    39 ar  
    67    36    37 ar  
    68    36    66 1   
    69    37    41 ar  
    70    37    67 1   
    71    38    39 1   
    72    39    40 ar  
    73    40    41 ar  
    74    40    69 1   
    75    41    68 1   
@<TRIPOS>SUBSTRUCTURE
     1 X0B         1 TEMP              0 ****  ****    0 ROOT
