@<TRIPOS>MOLECULE
molecule
   62    63     1     0     0
SMALL
bcc


@<TRIPOS>ATOM
      1 O2           0.0000     0.0000     0.0000 o          1 X0D      -0.828300
      2 C21          1.3420     0.0000     0.0000 c          1 X0D       0.886600
      3 O1           1.9460    -0.0010    -1.0470 o          1 X0D      -0.828300
      4 C20          2.0960     0.0000     1.3050 c3         1 X0D       0.033700
      5 C22          1.7280     1.2510     2.1060 c3         1 X0D       0.045700
      6 S23          2.6350     1.2520     3.6770 ss         1 X0D      -0.418200
      7 C24          2.0740     2.7830     4.4710 c3         1 X0D       0.019700
      8 C25          2.7600     2.9330     5.8310 c3         1 X0D      -0.061700
      9 C27          2.3840     4.2830     6.4450 c3         1 X0D      -0.088600
     10 C26          2.3040     1.8060     6.7590 c3         1 X0D      -0.088600
     11 N19          3.5360     0.0000     1.0370 ns         1 X0D      -0.563900
     12 C19          4.1790    -1.1640     0.8150 c          1 X0D       0.779100
     13 O19          3.5650    -2.2120     0.8360 o          1 X0D      -0.585100
     14 N15          5.5050    -1.1640     0.5680 n          1 X0D      -0.491400
     15 C16          6.2450     0.1000     0.5410 c3         1 X0D       0.072000
     16 C17          6.4190     0.6190     1.9700 c3         1 X0D      -0.126400
     17 C18          7.3210     1.8560     1.9580 c3         1 X0D      -0.094100
     18 C15          6.1490    -2.3270     0.3450 c          1 X0D       0.671700
     19 O15          5.5220    -3.3670     0.2920 o          1 X0D      -0.518100
     20 C11          7.6150    -2.3370     0.1660 ca         1 X0D      -0.137600
     21 C10          8.1960    -3.1730    -0.7860 ca         1 X0D      -0.044000
     22 C12          8.4220    -1.5050     0.9450 ca         1 X0D      -0.110000
     23 C13          9.7930    -1.5130     0.7800 ca         1 X0D      -0.149000
     24 C14         10.3770    -2.3410    -0.1570 ca         1 X0D      -0.097000
     25 C9           9.5810    -3.1760    -0.9490 ca         1 X0D      -0.002000
     26 C8          10.1870    -4.0310    -1.9250 cg         1 X0D      -0.064000
     27 C7          10.6910    -4.7150    -2.7350 ch         1 X0D      -0.135000
     28 C1          11.1500    -5.8730    -3.5250 ca         1 X0D      -0.011000
     29 C6          12.7780    -6.1340    -3.4120 ca         1 X0D      -0.044000
     30 C5          13.1780    -7.1720    -4.1220 ca         1 X0D      -0.189000
     31 C4          12.3740    -7.9510    -4.8670 ca         1 X0D       0.147900
     32 F4          12.6950    -8.8350    -5.6870 f          1 X0D      -0.101900
     33 C3          10.8570    -7.6990    -4.9660 ca         1 X0D      -0.194000
     34 C2          10.3220    -6.5530    -4.1990 ca         1 X0D       0.146900
     35 F2           8.9950    -5.9940    -4.5350 f          1 X0D      -0.143900
     36 H20          1.8340    -0.8840     1.8730 h1         1 X0D       0.090700
     37 H221         2.0780     2.1320     1.5820 h1         1 X0D       0.071200
     38 H222         0.6520     1.3020     2.2210 h1         1 X0D       0.071200
     39 H19          4.0430     0.8630     1.0250 hn         1 X0D       0.300500
     40 H241         1.0160     2.7080     4.6930 h1         1 X0D       0.053200
     41 H242         2.2450     3.6190     3.8050 h1         1 X0D       0.053200
     42 H25          3.8300     2.8200     5.7100 hc         1 X0D       0.055700
     43 H271         1.3090     4.3370     6.5680 hc         1 X0D       0.034033
     44 H272         2.8640     4.3860     7.4110 hc         1 X0D       0.034033
     45 H273         2.7130     5.0810     5.7910 hc         1 X0D       0.034033
     46 H261         2.6370     0.8540     6.3630 hc         1 X0D       0.034033
     47 H262         1.2230     1.8090     6.8290 hc         1 X0D       0.034033
     48 H263         2.7300     1.9550     7.7440 hc         1 X0D       0.034033
     49 H161         7.1910    -0.0460     0.0330 h1         1 X0D       0.063700
     50 H162         5.6640     0.8480     0.0150 h1         1 X0D       0.063700
     51 H171         6.8270    -0.1680     2.5930 hc         1 X0D       0.064200
     52 H172         5.4570     0.9270     2.3620 hc         1 X0D       0.064200
     53 H181         7.8830     1.9020     2.8830 hc         1 X0D       0.032367
     54 H182         6.7120     2.7460     1.8600 hc         1 X0D       0.032367
     55 H183         8.0070     1.7940     1.1210 hc         1 X0D       0.032367
     56 H10          7.5690    -3.7770    -1.4310 ha         1 X0D       0.166000
     57 H12          7.9700    -0.8270     1.6590 ha         1 X0D       0.158000
     58 H13         10.4150    -0.8620     1.3820 ha         1 X0D       0.129000
     59 H14         11.4530    -2.3460    -0.2800 ha         1 X0D       0.129000
     60 H6          13.2970    -5.9260    -2.4840 ha         1 X0D       0.167000
     61 H5          14.2340    -7.4120    -4.1050 ha         1 X0D       0.138000
     62 H3          10.2120    -8.4460    -5.4130 ha         1 X0D       0.167000
@<TRIPOS>BOND
     1     1     2 1
     2     2     3 1
     3     2     4 1
     4     4     5 1
     5     4    11 1
     6     5     6 1
     7     6     7 1
     8     7     8 1
     9     8     9 1
    10     8    10 1
    11    11    12 1
    12    12    13 2
    13    12    14 1
    14    14    15 1
    15    14    18 1
    16    15    16 1
    17    16    17 1
    18    18    19 2
    19    18    20 1
    20    20    21 ar
    21    20    22 ar
    22    21    25 ar
    23    22    23 ar
    24    23    24 ar
    25    24    25 ar
    26    25    26 1
    27    26    27 3
    28    27    28 1
    29    28    29 ar
    30    28    34 ar
    31    29    30 ar
    32    30    31 ar
    33    31    32 1
    34    31    33 ar
    35    33    34 ar
    36    34    35 1
    37     4    36 1
    38     5    37 1
    39     5    38 1
    40    11    39 1
    41     7    40 1
    42     7    41 1
    43     8    42 1
    44     9    43 1
    45     9    44 1
    46     9    45 1
    47    10    46 1
    48    10    47 1
    49    10    48 1
    50    15    49 1
    51    15    50 1
    52    16    51 1
    53    16    52 1
    54    17    53 1
    55    17    54 1
    56    17    55 1
    57    21    56 1
    58    22    57 1
    59    23    58 1
    60    24    59 1
    61    29    60 1
    62    30    61 1
    63    33    62 1
@<TRIPOS>SUBSTRUCTURE
     1 X0D         1 TEMP              0 ****  ****    0 ROOT
