@<TRIPOS>MOLECULE
X0P
   66    69     1     0     0
SMALL
bcc


@<TRIPOS>ATOM
      1 C1           0.0000     0.0000     0.0000 ca         1 X0P      -0.043000
      2 C2           1.4190     0.0000     0.0000 ca         1 X0P      -0.024000
      3 C3          -0.6900     0.0000     1.2210 ca         1 X0P      -0.095000
      4 C4           2.1160     0.0000     1.2210 ca         1 X0P      -0.122000
      5 C5           3.8080    -3.5280     6.2920 ca         1 X0P      -0.164000
      6 C6          -4.9240    -1.1950     4.6250 ca         1 X0P      -0.045500
      7 C7          -4.9230     1.2010     4.6260 ca         1 X0P      -0.045500
      8 C8           3.7440    -4.8120     6.8080 ca         1 X0P      -0.107000
      9 C9          -6.2850    -1.1980     4.3920 ca         1 X0P      -0.187500
     10 C10         -6.2850     1.2030     4.3920 ca         1 X0P      -0.187500
     11 C11          0.0250     0.0010     2.4070 ca         1 X0P      -0.083600
     12 C12          1.4350    -3.2910     6.5810 ca         1 X0P      -0.066600
     13 C13         -4.2430     0.0030     4.7410 ca         1 X0P      -0.134300
     14 C14          1.4310    -0.0010     2.3940 ca         1 X0P      -0.008300
     15 C15          2.6660    -2.7660     6.1760 ca         1 X0P      -0.046300
     16 C16          2.5340    -5.3440     7.2110 ca         1 X0P      -0.236000
     17 C17          1.3740    -4.5920     7.1020 ca         1 X0P       0.152100
     18 C18         -6.9700     0.0040     4.2750 ca         1 X0P       0.133100
     19 C19         -0.6960     0.0010     3.6980 c          1 X0P       0.569700
     20 C21          0.0110    -0.0120    -2.3930 ca         1 X0P      -0.121000
     21 C25         -2.7570     0.0010     4.9960 c3         1 X0P       0.092300
     22 C26          2.1870    -0.0010     3.6970 c3         1 X0P       0.170100
     23 C27          2.7430    -1.3700     5.6160 c3         1 X0P       0.201100
     24 C28          3.0150    -2.2550     3.3780 c3         1 X0P       0.148100
     25 C29          1.4050    -0.0020    -2.3930 ca         1 X0P      -0.114000
     26 N1          -2.0430     0.0010     3.7170 ns         1 X0P      -0.199900
     27 N2           2.2250    -1.3660     4.2410 n3         1 X0P      -0.468600
     28 O1          -0.1200    -1.6090     7.4320 o          1 X0P      -0.884800
     29 O3          -0.0730     0.0010     4.7410 o          1 X0P      -0.549100
     30 C40         -0.6900    -0.0050    -1.2260 ca         1 X0P      -0.083000
     31 O4          -0.5060    -2.6040     5.4840 o          1 X0P      -0.884800
     32 C50          2.1050    -0.0010    -1.2260 ca         1 X0P      -0.091000
     33 O6           0.1850    -5.1120     7.4980 os         1 X0P      -0.269900
     34 O8          -8.3100     0.0040     4.0440 os         1 X0P      -0.313900
     35 H3          -1.7730     0.0020     1.2360 ha         1 X0P       0.108000
     36 H40         -1.7730    -0.0130    -1.2410 ha         1 X0P       0.100000
     37 H4           3.1990    -0.0010     1.2270 ha         1 X0P       0.109000
     38 H50          3.1880     0.0070    -1.2430 ha         1 X0P       0.100000
     39 H5           4.7610    -3.1200     5.9790 ha         1 X0P       0.088000
     40 H8           4.6470    -5.4030     6.8950 ha         1 X0P       0.079000
     41 H6          -4.3890    -2.1330     4.7160 ha         1 X0P       0.116500
     42 H9          -6.8180    -2.1370     4.3010 ha         1 X0P       0.111000
     43 H7          -4.3870     2.1380     4.7170 ha         1 X0P       0.116500
     44 H10         -6.8180     2.1420     4.3020 ha         1 X0P       0.111000
     45 H16          2.4920    -6.3490     7.6130 ha         1 X0P       0.101000
     46 H251        -2.4880    -0.8840     5.5600 h1         1 X0P       0.061700
     47 H252        -2.4870     0.8850     5.5610 h1         1 X0P       0.061700
     48 H261         1.6920     0.6550     4.4030 h1         1 X0P       0.028200
     49 H262         3.1990     0.3480     3.5280 h1         1 X0P       0.028200
     50 H271         2.1490    -0.7020     6.2270 h1         1 X0P       0.021700
     51 H272         3.7740    -1.0380     5.6140 h1         1 X0P       0.021700
     52 H1          -2.5560     0.0170     2.8580 hn         1 X0P       0.158500
     53 H21         -0.5230    -0.0120    -3.3350 ha         1 X0P       0.092000
     54 H29          1.9380    -0.0070    -3.3360 ha         1 X0P       0.091000
     55 H221         0.5800    -7.1210     7.2630 h1         1 X0P      -0.015633
     56 H222        -0.8040    -6.7340     8.2950 h1         1 X0P      -0.015633
     57 H223         0.8420    -6.4800     8.8910 h1         1 X0P      -0.015633
     58 H241        -8.5110     1.8320     3.1130 h1         1 X0P      -0.007633
     59 H242       -10.0070     1.1360     3.7520 h1         1 X0P      -0.007633
     60 H243        -8.8120     1.8300     4.8570 h1         1 X0P      -0.007633
     61 H281         4.0110    -1.8480     3.2560 h1         1 X0P      -0.001300
     62 H282         3.0780    -3.2360     3.8320 h1         1 X0P      -0.001300
     63 H283         2.5370    -2.3360     2.4090 h1         1 X0P      -0.001300
     64 C20          0.2080    -2.4830     6.4600 c          1 X0P       0.996200
     65 C22          0.2020    -6.4420     8.0180 c3         1 X0P       0.236700
     66 C24         -8.9480     1.2780     3.9350 c3         1 X0P       0.244700
@<TRIPOS>BOND
     1     1     2 ar  
     2     1     3 ar  
     3     1    30 ar  
     4     2     4 ar  
     5     2    32 ar  
     6     3    11 ar  
     7     3    35 1   
     8     4    14 ar  
     9     4    37 1   
    10     5     8 ar  
    11     5    15 ar  
    12     5    39 1   
    13     6     9 ar  
    14     6    13 ar  
    15     6    41 1   
    16     7    10 ar  
    17     7    13 ar  
    18     7    43 1   
    19     8    16 ar  
    20     8    40 1   
    21     9    18 ar  
    22     9    42 1   
    23    10    18 ar  
    24    10    44 1   
    25    11    14 ar  
    26    11    19 1   
    27    12    15 ar  
    28    12    17 ar  
    29    12    64 1   
    30    13    21 1   
    31    14    22 1   
    32    15    23 1   
    33    16    17 ar  
    34    16    45 1   
    35    17    33 1   
    36    18    34 1   
    37    19    26 1   
    38    19    29 2   
    39    20    25 ar  
    40    20    30 ar  
    41    20    53 1   
    42    21    26 1   
    43    21    46 1   
    44    21    47 1   
    45    22    27 1   
    46    22    48 1   
    47    22    49 1   
    48    23    27 1   
    49    23    50 1   
    50    23    51 1   
    51    24    27 1   
    52    24    61 1   
    53    24    62 1   
    54    24    63 1   
    55    25    32 ar  
    56    25    54 1   
    57    26    52 1   
    58    28    64 1   
    59    30    36 1   
    60    31    64 1   
    61    32    38 1   
    62    33    65 1   
    63    34    66 1   
    64    55    65 1   
    65    56    65 1   
    66    57    65 1   
    67    58    66 1   
    68    59    66 1   
    69    60    66 1   
@<TRIPOS>SUBSTRUCTURE
     1 X0P         1 TEMP              0 ****  ****    0 ROOT
