@<TRIPOS>MOLECULE
X0Q
   32    34     1     0     0
SMALL
bcc


@<TRIPOS>ATOM
      1 O22          0.0000     0.0000     0.0000 o          1 X0Q      -0.488800
      2 S21          1.4210     0.0000     0.0000 sy         1 X0Q       0.973200
      3 O23          2.1970     0.0000     1.1900 o          1 X0Q      -0.488800
      4 N24          1.8880    -1.3330    -0.8640 nz         1 X0Q      -0.162500
      5 C19          1.9190     1.4180    -0.9190 cc         1 X0Q      -0.187600
      6 S20          3.4700     2.2330    -0.7620 ss         1 X0Q      -0.153800
      7 C16          3.0130     3.4050    -1.9910 cc         1 X0Q       0.152400
      8 C17          1.7720     3.1310    -2.4340 cd         1 X0Q      -0.180000
      9 C18          1.1780     2.0340    -1.8430 cd         1 X0Q       0.082000
     10 C14          3.8640     4.5210    -2.4650 cc         1 X0Q       0.249800
     11 C15          5.1220     4.8050    -2.0230 cd         1 X0Q      -0.345600
     12 N11          5.5400     5.9010    -2.7150 na         1 X0Q       0.670300
     13 N12          4.4910     6.2520    -3.5780 nd         1 X0Q      -0.351800
     14 N13          3.5270     5.4160    -3.4060 nc         1 X0Q      -0.213000
     15 C10          6.7760     6.5510    -2.5910 ca         1 X0Q      -0.191200
     16 C9           7.7590     6.0220    -1.7630 ca         1 X0Q      -0.089000
     17 C8           8.9790     6.6570    -1.6360 ca         1 X0Q      -0.077000
     18 C7           9.2300     7.8240    -2.3310 ca         1 X0Q      -0.044000
     19 C4           8.2490     8.3640    -3.1650 ca         1 X0Q       0.064000
     20 C3           7.0190     7.7180    -3.2970 ca         1 X0Q      -0.040000
     21 C5           8.5070     9.5740    -3.8870 cg         1 X0Q       0.197800
     22 N22          8.6970    10.5430    -4.4470 n1         1 X0Q      -0.322800
     23 H242         2.8880    -1.3720    -0.9020 hn         1 X0Q       0.323467
     24 H241         1.5390    -2.1590    -0.4180 hn         1 X0Q       0.323467
     25 H18          0.2050     1.7110    -2.1940 ha         1 X0Q       0.133000
     26 H17          1.2310     3.6880    -3.1900 ha         1 X0Q       0.167000
     27 H15          5.6690     4.2600    -1.2630 h4         1 X0Q       0.168000
     28 H9           7.5560     5.1300    -1.1830 ha         1 X0Q       0.110000
     29 H3           6.2320     8.1650    -3.8920 ha         1 X0Q       0.147000
     30 H8           9.7450     6.2360    -0.9960 ha         1 X0Q       0.122000
     31 H7          10.1830     8.3260    -2.2200 ha         1 X0Q       0.126000
     32 H243         1.2400    -1.4920    -1.6090 hn         1 X0Q       0.323467
@<TRIPOS>BOND
     1     1     2 2   
     2     2     3 2   
     3     2     4 1   
     4     2     5 1   
     5     4    23 1   
     6     4    24 1   
     7     4    32 1   
     8     5     6 1   
     9     5     9 2   
    10     6     7 1   
    11     7     8 2   
    12     7    10 1   
    13     8     9 1   
    14     8    26 1   
    15     9    25 1   
    16    10    11 2   
    17    10    14 1   
    18    11    12 1   
    19    11    27 1   
    20    12    13 1   
    21    12    15 1   
    22    13    14 2   
    23    15    16 ar  
    24    15    20 ar  
    25    16    17 ar  
    26    16    28 1   
    27    17    18 ar  
    28    17    30 1   
    29    18    19 ar  
    30    18    31 1   
    31    19    20 ar  
    32    19    21 1   
    33    20    29 1   
    34    21    22 3   
@<TRIPOS>SUBSTRUCTURE
     1 X0Q         1 TEMP              0 ****  ****    0 ROOT
