@<TRIPOS>MOLECULE
molecule
   32    34     1     0     0
SMALL
bcc


@<TRIPOS>ATOM
      1 O22          0.0000     0.0000     0.0000 o          1 X0Q      -0.520300
      2 S21          1.4210     0.0000     0.0000 sy         1 X0Q       1.270200
      3 O23          2.1970     0.0000     1.1900 o          1 X0Q      -0.520300
      4 N24          1.8880    -1.3330    -0.8640 nz         1 X0Q      -0.824500
      5 C19          1.9190     1.4180    -0.9190 cc         1 X0Q      -0.350600
      6 S20          3.4700     2.2330    -0.7620 ss         1 X0Q      -0.009800
      7 C16          3.0130     3.4050    -1.9910 cc         1 X0Q       0.073400
      8 C17          1.7720     3.1310    -2.4340 cd         1 X0Q      -0.181000
      9 C18          1.1780     2.0340    -1.8430 cd         1 X0Q       0.023000
     10 C14          3.8640     4.5210    -2.4650 cc         1 X0Q       0.281800
     11 C15          5.1220     4.8050    -2.0230 cd         1 X0Q      -0.183600
     12 N11          5.5400     5.9010    -2.7150 na         1 X0Q       0.170300
     13 N12          4.4910     6.2520    -3.5780 nd         1 X0Q      -0.136800
     14 N13          3.5270     5.4160    -3.4060 nc         1 X0Q      -0.301000
     15 C10          6.7760     6.5510    -2.5910 ca         1 X0Q      -0.009200
     16 C9           7.7590     6.0220    -1.7630 ca         1 X0Q      -0.125000
     17 C8           8.9790     6.6570    -1.6360 ca         1 X0Q      -0.108000
     18 C7           9.2300     7.8240    -2.3310 ca         1 X0Q      -0.078000
     19 C4           8.2490     8.3640    -3.1650 ca         1 X0Q       0.015000
     20 C3           7.0190     7.7180    -3.2970 ca         1 X0Q      -0.074000
     21 C5           8.5070     9.5740    -3.8870 cg         1 X0Q       0.219800
     22 N22          8.6970    10.5430    -4.4470 n1         1 X0Q      -0.312800
     23 H242         2.8880    -1.3720    -0.9020 hn         1 X0Q       0.498133
     24 H241         1.5390    -2.1590    -0.4180 hn         1 X0Q       0.498133
     25 H18          0.2050     1.7110    -2.1940 ha         1 X0Q       0.171000
     26 H17          1.2310     3.6880    -3.1900 ha         1 X0Q       0.198000
     27 H15          5.6690     4.2600    -1.2630 h4         1 X0Q       0.190000
     28 H9           7.5560     5.1300    -1.1830 ha         1 X0Q       0.134000
     29 H3           6.2320     8.1650    -3.8920 ha         1 X0Q       0.176000
     30 H8           9.7450     6.2360    -0.9960 ha         1 X0Q       0.155000
     31 H7          10.1830     8.3260    -2.2200 ha         1 X0Q       0.161000
     32 H243         1.2400    -1.4920    -1.6090 hn         1 X0Q       0.498133
@<TRIPOS>BOND
     1     1     2 2
     2     2     3 2
     3     2     4 1
     4     2     5 1
     5     5     6 1
     6     5     9 2
     7     6     7 1
     8     7     8 2
     9     7    10 1
    10     8     9 1
    11    10    11 2
    12    10    14 1
    13    11    12 1
    14    12    13 1
    15    12    15 1
    16    13    14 2
    17    15    16 ar
    18    15    20 ar
    19    16    17 ar
    20    17    18 ar
    21    18    19 ar
    22    19    20 ar
    23    19    21 1
    24    21    22 3
    25     4    23 1
    26     4    24 1
    27     9    25 1
    28     8    26 1
    29    11    27 1
    30    16    28 1
    31    20    29 1
    32    17    30 1
    33    18    31 1
    34    32     4 1
@<TRIPOS>SUBSTRUCTURE
     1 X0Q         1 TEMP              0 ****  ****    0 ROOT
