@<TRIPOS>MOLECULE
X0R
   63    65     1     0     0
SMALL
bcc


@<TRIPOS>ATOM
      1 Br           0.0000     0.0000     0.0000 br         1 X0R      -0.157100
      2 C28          1.8910     0.0000     0.0000 ca         1 X0R       0.037100
      3 C27          2.5830     0.0000     1.1980 ca         1 X0R      -0.087500
      4 C26          3.9650     0.0010     1.1980 ca         1 X0R      -0.082000
      5 C29          2.5830    -0.0060    -1.1980 ca         1 X0R      -0.087500
      6 C30          3.9650    -0.0070    -1.1970 ca         1 X0R      -0.082000
      7 C25          4.6560     0.0000     0.0000 ca         1 X0R      -0.049300
      8 C24          6.1630     0.0010     0.0000 c3         1 X0R       0.128000
      9 S23          6.7680    -1.7090     0.0010 ss         1 X0R      -0.448200
     10 C22          8.5710    -1.5030     0.0010 c3         1 X0R       0.115700
     11 C20          9.2410    -2.8790     0.0020 c3         1 X0R      -0.067300
     12 C21         10.7380    -2.7090     0.0020 c          1 X0R       0.973600
     13 O2          11.3970    -3.1600     0.9080 o          1 X0R      -0.878300
     14 O1          11.3390    -2.0550    -1.0050 o          1 X0R      -0.878300
     15 N19          8.8330    -3.6200     1.1970 ns         1 X0R      -0.175900
     16 C19          8.8570    -4.9680     1.1960 c          1 X0R       0.575100
     17 O19          9.2170    -5.5680     0.2020 o          1 X0R      -0.622100
     18 N15          8.4830    -5.6500     2.2960 n          1 X0R      -0.124400
     19 C16          8.0490    -4.9260     3.4940 c3         1 X0R      -0.008000
     20 C17          6.6510    -4.3500     3.2650 c3         1 X0R      -0.083400
     21 C18          6.1370    -3.7270     4.5630 c3         1 X0R       0.007900
     22 C15          8.5060    -6.9980     2.2950 c          1 X0R       0.589700
     23 O15          8.9370    -7.5970     1.3290 o          1 X0R      -0.551100
     24 C11          8.0100    -7.7470     3.4680 ca         1 X0R      -0.139600
     25 C10          8.6780    -8.8910     3.8990 ca         1 X0R      -0.023000
     26 C12          6.8740    -7.3060     4.1510 ca         1 X0R      -0.113000
     27 C13          6.4070    -8.0040     5.2470 ca         1 X0R      -0.116000
     28 C14          7.0600    -9.1420     5.6770 ca         1 X0R      -0.080000
     29 C9           8.2020    -9.5920     5.0080 ca         1 X0R       0.025000
     30 C8           8.8810   -10.7690     5.4590 cg         1 X0R      -0.077000
     31 C7           9.4450   -11.7230     5.8450 ch         1 X0R      -0.221000
     32 C1           9.9450   -13.3100     6.2950 ca         1 X0R       0.042000
     33 C6           9.4350   -13.6660     7.5490 ca         1 X0R      -0.001000
     34 C5           9.9930   -15.2660     7.9010 ca         1 X0R      -0.204000
     35 C4          11.0830   -15.5750     7.3260 ca         1 X0R       0.128900
     36 F4          11.7580   -16.5060     7.8530 f          1 X0R      -0.115900
     37 C3          11.8430   -14.8390     6.4990 ca         1 X0R      -0.216000
     38 C2          11.2370   -13.5640     5.5860 ca         1 X0R       0.185900
     39 F2          11.9200   -12.7770     4.8760 f          1 X0R      -0.029900
     40 H27          2.0410    -0.0070     2.1360 ha         1 X0R       0.112500
     41 H29          2.0410    -0.0180    -2.1360 ha         1 X0R       0.112500
     42 H26          4.5060     0.0400     2.1360 ha         1 X0R       0.115500
     43 H30          4.5070    -0.0110    -2.1350 ha         1 X0R       0.115500
     44 H241         6.5240     0.5660    -0.8510 h1         1 X0R       0.037200
     45 H242         6.5240     0.4550     0.9150 h1         1 X0R       0.037200
     46 H221         8.8710    -0.9500    -0.8800 h1         1 X0R       0.047700
     47 H222         8.8720    -0.9600     0.8880 h1         1 X0R       0.047700
     48 H20          8.9400    -3.4270    -0.8830 h1         1 X0R       0.072700
     49 H19          8.5880    -3.1260     2.0320 hn         1 X0R       0.167500
     50 H161         8.6990    -4.0740     3.6560 h1         1 X0R       0.043700
     51 H162         8.0990    -5.5860     4.3520 h1         1 X0R       0.043700
     52 H171         5.9920    -5.1320     2.9070 hc         1 X0R       0.041200
     53 H172         6.7030    -3.5570     2.5290 hc         1 X0R       0.041200
     54 H181         6.4470    -2.6900     4.6140 hc         1 X0R       0.000033
     55 H182         6.5440    -4.2670     5.4090 hc         1 X0R       0.000033
     56 H183         5.0550    -3.7810     4.5860 hc         1 X0R       0.000033
     57 H10          9.6060    -9.1860     3.4260 ha         1 X0R       0.129000
     58 H12          6.3510    -6.4190     3.8130 ha         1 X0R       0.142000
     59 H13          5.5260    -7.6600     5.7740 ha         1 X0R       0.101000
     60 H14          6.6900    -9.6850     6.5380 ha         1 X0R       0.102000
     61 H6           9.4670   -12.9590     8.3680 ha         1 X0R       0.152000
     62 H5           9.7180   -15.7420     8.8340 ha         1 X0R       0.129000
     63 H3          12.6400   -15.3490     5.9720 ha         1 X0R       0.117000
@<TRIPOS>BOND
     1     1     2 1   
     2     2     3 ar  
     3     2     5 ar  
     4     3     4 ar  
     5     3    40 1   
     6     4     7 ar  
     7     4    42 1   
     8     5     6 ar  
     9     5    41 1   
    10     6     7 ar  
    11     6    43 1   
    12     7     8 1   
    13     8     9 1   
    14     8    44 1   
    15     8    45 1   
    16     9    10 1   
    17    10    11 1   
    18    10    46 1   
    19    10    47 1   
    20    11    12 1   
    21    11    15 1   
    22    11    48 1   
    23    12    13 1   
    24    12    14 1   
    25    15    16 1   
    26    15    49 1   
    27    16    17 2   
    28    16    18 1   
    29    18    19 1   
    30    18    22 1   
    31    19    20 1   
    32    19    50 1   
    33    19    51 1   
    34    20    21 1   
    35    20    52 1   
    36    20    53 1   
    37    21    54 1   
    38    21    55 1   
    39    21    56 1   
    40    22    23 2   
    41    22    24 1   
    42    24    25 ar  
    43    24    26 ar  
    44    25    29 ar  
    45    25    57 1   
    46    26    27 ar  
    47    26    58 1   
    48    27    28 ar  
    49    27    59 1   
    50    28    29 ar  
    51    28    60 1   
    52    29    30 1   
    53    30    31 3   
    54    31    32 1   
    55    32    33 ar  
    56    32    38 ar  
    57    33    34 ar  
    58    33    61 1   
    59    34    35 ar  
    60    34    62 1   
    61    35    36 1   
    62    35    37 ar  
    63    37    38 ar  
    64    37    63 1   
    65    38    39 1   
@<TRIPOS>SUBSTRUCTURE
     1 X0R         1 TEMP              0 ****  ****    0 ROOT
