@<TRIPOS>MOLECULE
molecule
   63    65     1     0     0
SMALL
bcc


@<TRIPOS>ATOM
      1 Br           0.0000     0.0000     0.0000 br         1 X0R      -0.118100
      2 C28          1.8910     0.0000     0.0000 ca         1 X0R      -0.022900
      3 C27          2.5830     0.0000     1.1980 ca         1 X0R      -0.106000
      4 C26          3.9650     0.0010     1.1980 ca         1 X0R      -0.114500
      5 C29          2.5830    -0.0060    -1.1980 ca         1 X0R      -0.106000
      6 C30          3.9650    -0.0070    -1.1970 ca         1 X0R      -0.114500
      7 C25          4.6560     0.0000     0.0000 ca         1 X0R      -0.042300
      8 C24          6.1630     0.0010     0.0000 c3         1 X0R       0.051000
      9 S23          6.7680    -1.7090     0.0010 ss         1 X0R      -0.388200
     10 C22          8.5710    -1.5030     0.0010 c3         1 X0R       0.040700
     11 C20          9.2410    -2.8790     0.0020 c3         1 X0R       0.033700
     12 C21         10.7380    -2.7090     0.0020 c          1 X0R       0.886600
     13 O2          11.3970    -3.1600     0.9080 o          1 X0R      -0.826800
     14 O1          11.3390    -2.0550    -1.0050 o          1 X0R      -0.826800
     15 N19          8.8330    -3.6200     1.1970 ns         1 X0R      -0.564900
     16 C19          8.8570    -4.9680     1.1960 c          1 X0R       0.779100
     17 O19          9.2170    -5.5680     0.2020 o          1 X0R      -0.584100
     18 N15          8.4830    -5.6500     2.2960 n          1 X0R      -0.490400
     19 C16          8.0490    -4.9260     3.4940 c3         1 X0R       0.073000
     20 C17          6.6510    -4.3500     3.2650 c3         1 X0R      -0.125400
     21 C18          6.1370    -3.7270     4.5630 c3         1 X0R      -0.094100
     22 C15          8.5060    -6.9980     2.2950 c          1 X0R       0.671700
     23 O15          8.9370    -7.5970     1.3290 o          1 X0R      -0.518100
     24 C11          8.0100    -7.7470     3.4680 ca         1 X0R      -0.137600
     25 C10          8.6780    -8.8910     3.8990 ca         1 X0R      -0.049000
     26 C12          6.8740    -7.3060     4.1510 ca         1 X0R      -0.111000
     27 C13          6.4070    -8.0040     5.2470 ca         1 X0R      -0.148000
     28 C14          7.0600    -9.1420     5.6770 ca         1 X0R      -0.097000
     29 C9           8.2020    -9.5920     5.0080 ca         1 X0R       0.004000
     30 C8           8.8810   -10.7690     5.4590 cg         1 X0R      -0.089000
     31 C7           9.4450   -11.7230     5.8450 ch         1 X0R      -0.200000
     32 C1           9.9450   -13.3100     6.2950 ca         1 X0R      -0.005000
     33 C6           9.4350   -13.6660     7.5490 ca         1 X0R      -0.034000
     34 C5           9.9930   -15.2660     7.9010 ca         1 X0R      -0.255000
     35 C4          11.0830   -15.5750     7.3260 ca         1 X0R       0.203900
     36 F4          11.7580   -16.5060     7.8530 f          1 X0R      -0.139900
     37 C3          11.8430   -14.8390     6.4990 ca         1 X0R      -0.265000
     38 C2          11.2370   -13.5640     5.5860 ca         1 X0R       0.203900
     39 F2          11.9200   -12.7770     4.8760 f          1 X0R      -0.025900
     40 H27          2.0410    -0.0070     2.1360 ha         1 X0R       0.138500
     41 H29          2.0410    -0.0180    -2.1360 ha         1 X0R       0.138500
     42 H26          4.5060     0.0400     2.1360 ha         1 X0R       0.143000
     43 H30          4.5070    -0.0110    -2.1350 ha         1 X0R       0.143000
     44 H241         6.5240     0.5660    -0.8510 h1         1 X0R       0.061700
     45 H242         6.5240     0.4550     0.9150 h1         1 X0R       0.061700
     46 H221         8.8710    -0.9500    -0.8800 h1         1 X0R       0.071700
     47 H222         8.8720    -0.9600     0.8880 h1         1 X0R       0.071700
     48 H20          8.9400    -3.4270    -0.8830 h1         1 X0R       0.092700
     49 H19          8.5880    -3.1260     2.0320 hn         1 X0R       0.299500
     50 H161         8.6990    -4.0740     3.6560 h1         1 X0R       0.063200
     51 H162         8.0990    -5.5860     4.3520 h1         1 X0R       0.063200
     52 H171         5.9920    -5.1320     2.9070 hc         1 X0R       0.064700
     53 H172         6.7030    -3.5570     2.5290 hc         1 X0R       0.064700
     54 H181         6.4470    -2.6900     4.6140 hc         1 X0R       0.032033
     55 H182         6.5440    -4.2670     5.4090 hc         1 X0R       0.032033
     56 H183         5.0550    -3.7810     4.5860 hc         1 X0R       0.032033
     57 H10          9.6060    -9.1860     3.4260 ha         1 X0R       0.161000
     58 H12          6.3510    -6.4190     3.8130 ha         1 X0R       0.157000
     59 H13          5.5260    -7.6600     5.7740 ha         1 X0R       0.130000
     60 H14          6.6900    -9.6850     6.5380 ha         1 X0R       0.130000
     61 H6           9.4670   -12.9590     8.3680 ha         1 X0R       0.200000
     62 H5           9.7180   -15.7420     8.8340 ha         1 X0R       0.156000
     63 H3          12.6400   -15.3490     5.9720 ha         1 X0R       0.145000
@<TRIPOS>BOND
     1     1     2 1
     2     2     3 ar
     3     2     5 ar
     4     3     4 ar
     5     4     7 ar
     6     5     6 ar
     7     6     7 ar
     8     7     8 1
     9     8     9 1
    10     9    10 1
    11    10    11 1
    12    11    12 1
    13    11    15 1
    14    12    13 1
    15    12    14 1
    16    15    16 1
    17    16    17 2
    18    16    18 1
    19    18    19 1
    20    18    22 1
    21    19    20 1
    22    20    21 1
    23    22    23 2
    24    22    24 1
    25    24    25 ar
    26    24    26 ar
    27    25    29 ar
    28    26    27 ar
    29    27    28 ar
    30    28    29 ar
    31    29    30 1
    32    30    31 3
    33    31    32 1
    34    32    33 ar
    35    32    38 ar
    36    33    34 ar
    37    34    35 ar
    38    35    36 1
    39    35    37 ar
    40    37    38 ar
    41    38    39 1
    42     3    40 1
    43     5    41 1
    44     4    42 1
    45     6    43 1
    46     8    44 1
    47     8    45 1
    48    10    46 1
    49    10    47 1
    50    11    48 1
    51    15    49 1
    52    19    50 1
    53    19    51 1
    54    20    52 1
    55    20    53 1
    56    21    54 1
    57    21    55 1
    58    21    56 1
    59    25    57 1
    60    26    58 1
    61    27    59 1
    62    28    60 1
    63    33    61 1
    64    34    62 1
    65    37    63 1
@<TRIPOS>SUBSTRUCTURE
     1 X0R         1 TEMP              0 ****  ****    0 ROOT
