@<TRIPOS>MOLECULE
molecule
   32    33     1     0     0
SMALL
bcc


@<TRIPOS>ATOM
      1 CAB          0.0000     0.0000     0.0000 c3         1 X0T       0.109300
      2 N3           1.4650     0.0000     0.0000 n          1 X0T      -0.423300
      3 C2           2.1370     0.0000     1.1660 c          1 X0T       0.818500
      4 O2           1.5120    -0.0010     2.2100 o          1 X0T      -0.655500
      5 N1           3.4800    -0.0000     1.2060 n          1 X0T      -0.469400
      6 CAA          4.1640    -0.0010     2.5020 c3         1 X0T       0.104300
      7 C6           4.2090    -0.0010     0.0710 c          1 X0T       0.746100
      8 O6           5.4260    -0.0020     0.1210 o          1 X0T      -0.617500
      9 C5           3.5450    -0.0000    -1.1750 cc         1 X0T      -0.341200
     10 C4           2.1560    -0.0040    -1.2010 cd         1 X0T       0.492200
     11 N9           1.7840    -0.0110    -2.4830 nd         1 X0T      -0.723000
     12 C8           2.8440    -0.0140    -3.2520 cc         1 X0T       0.450400
     13 N7           3.9560    -0.0010    -2.4920 na         1 X0T      -0.133900
     14 CAI          5.3410    -0.0010    -2.9730 c3         1 X0T       0.045300
     15 CAO          5.8620    -1.4390    -3.0220 c3         1 X0T       0.134100
     16 OAF          5.9230    -1.9690    -1.6960 oh         1 X0T      -0.574800
     17 CAH          7.2620    -1.4520    -3.6400 c3         1 X0T       0.112400
     18 OAE          7.7020    -2.8040    -3.7930 oh         1 X0T      -0.610800
     19 HAB1        -0.3610    -0.9340     0.4140 h1         1 X0T       0.058033
     20 HAB2        -0.3610     0.8250     0.6020 h1         1 X0T       0.058033
     21 HAB3        -0.3610     0.1090    -1.0160 h1         1 X0T       0.058033
     22 HAA1         3.7430     0.7730     3.1330 h1         1 X0T       0.061367
     23 HAA2         4.0330    -0.9650     2.9790 h1         1 X0T       0.061367
     24 HAA3         5.2200     0.1880     2.3540 h1         1 X0T       0.061367
     25 H8           2.8290    -0.0260    -4.3350 h5         1 X0T       0.073100
     26 HAI1         5.3790     0.4310    -3.9660 h1         1 X0T       0.083700
     27 HAI2         5.9570     0.5840    -2.3010 h1         1 X0T       0.083700
     28 HAO          5.1960    -2.0450    -3.6240 h1         1 X0T       0.046700
     29 HAF          5.8430    -2.9080    -1.7300 ho         1 X0T       0.415000
     30 HAH1         7.2330    -0.9700    -4.6100 h1         1 X0T       0.032700
     31 HAH2         7.9480    -0.9200    -2.9920 h1         1 X0T       0.032700
     32 HAE          8.5400    -2.8140    -4.2250 ho         1 X0T       0.411000
@<TRIPOS>BOND
     1     1     2 1
     2     2     3 1
     3     2    10 1
     4     3     4 2
     5     3     5 1
     6     5     6 1
     7     5     7 1
     8     7     8 2
     9     7     9 1
    10     9    10 2
    11     9    13 1
    12    10    11 1
    13    11    12 2
    14    12    13 1
    15    13    14 1
    16    14    15 1
    17    15    16 1
    18    15    17 1
    19    17    18 1
    20     1    19 1
    21     1    20 1
    22     1    21 1
    23     6    22 1
    24     6    23 1
    25     6    24 1
    26    12    25 1
    27    14    26 1
    28    14    27 1
    29    15    28 1
    30    16    29 1
    31    17    30 1
    32    17    31 1
    33    18    32 1
@<TRIPOS>SUBSTRUCTURE
     1 X0T         1 TEMP              0 ****  ****    0 ROOT
