@<TRIPOS>MOLECULE
X0U
   22    24     1     0     0
SMALL
bcc


@<TRIPOS>ATOM
      1 N1           0.0000     0.0000     0.0000 nc         1 X0U      -0.447100
      2 N2          -1.9720    -0.0010     1.3070 nv         1 X0U      -0.523800
      3 C1           3.5950     0.0000    -0.9100 ca         1 X0U       0.074100
      4 C2           4.1230     0.0020     0.3800 ca         1 X0U       0.088100
      5 C3           6.2900    -0.3660    -0.5300 c3         1 X0U       0.170400
      6 C4           5.7810     0.3750    -1.7730 c3         1 X0U       0.170400
      7 C5           2.2310    -0.0010    -1.1020 ca         1 X0U      -0.054000
      8 C6           1.3500     0.0000     0.0000 ca         1 X0U       0.067400
      9 C7           1.8930     0.0000     1.2870 ca         1 X0U       0.003900
     10 C8           3.2740     0.0000     1.4700 ca         1 X0U      -0.066000
     11 C9          -0.6020    -0.0000     1.1400 cd         1 X0U       0.479100
     12 O1           4.4200    -0.0070    -1.9960 os         1 X0U      -0.297900
     13 O2           5.4700     0.0090     0.5830 os         1 X0U      -0.296900
     14 S            0.5710    -0.0010     2.4500 ss         1 X0U      -0.280100
     15 H21N        -2.4680     0.8660     1.3760 hn         1 X0U       0.276800
     16 H22N        -2.4680    -0.8680     1.3760 hn         1 X0U       0.276800
     17 H5           1.8310    -0.0030    -2.1090 ha         1 X0U       0.127000
     18 H8           3.6850    -0.0010     2.4720 ha         1 X0U       0.126000
     19 H31C         7.3180    -0.0860    -0.3350 h1         1 X0U       0.026200
     20 H32C         6.2210    -1.4350    -0.6890 h1         1 X0U       0.026200
     21 H41C         5.8370     1.4440    -1.6090 h1         1 X0U       0.026200
     22 H42C         6.3820     0.1000    -2.6320 h1         1 X0U       0.026200
@<TRIPOS>BOND
     1     1     8 1   
     2     1    11 2   
     3     2    11 1   
     4     2    15 1   
     5     2    16 1   
     6     3     4 ar  
     7     3     7 ar  
     8     3    12 1   
     9     4    10 ar  
    10     4    13 1   
    11     5     6 1   
    12     5    13 1   
    13     5    19 1   
    14     5    20 1   
    15     6    12 1   
    16     6    21 1   
    17     6    22 1   
    18     7     8 ar  
    19     7    17 1   
    20     8     9 ar  
    21     9    10 ar  
    22     9    14 1   
    23    10    18 1   
    24    11    14 1   
@<TRIPOS>SUBSTRUCTURE
     1 X0U         1 TEMP              0 ****  ****    0 ROOT
