@<TRIPOS>MOLECULE
X0V
   19    19     1     0     0
SMALL
bcc


@<TRIPOS>ATOM
      1 C1           0.0000     0.0000     0.0000 c3         1 X0V       0.640200
      2 C2           1.5060     0.0000     0.0000 ca         1 X0V      -0.212300
      3 C3           3.5810     0.0000     1.2030 ca         1 X0V       0.014600
      4 C4           2.1960     0.0000     1.2000 ca         1 X0V      -0.054000
      5 C6           4.2780     0.0010    -0.0060 ca         1 X0V       0.055600
      6 C7           2.1960    -0.0040    -1.1970 ca         1 X0V      -0.041000
      7 F1          -0.4680     1.3180    -0.0000 f          1 X0V      -0.209633
      8 F2          -0.4660    -0.6590    -1.1440 f          1 X0V      -0.209633
      9 F3          -0.4670    -0.6610     1.1410 f          1 X0V      -0.209633
     10 C8           3.5790    -0.0040    -1.2040 ca         1 X0V      -0.120000
     11 N1           4.2810     0.0000     2.4150 nv         1 X0V      -0.551200
     12 N2           5.6780     0.0010    -0.0110 nv         1 X0V      -0.558200
     13 H4           1.6520    -0.0010     2.1370 ha         1 X0V       0.121000
     14 H7           1.6520    -0.0080    -2.1340 ha         1 X0V       0.116000
     15 H11N         4.5140     0.8670     2.8580 hn         1 X0V       0.274800
     16 H12N         4.5150    -0.8670     2.8580 hn         1 X0V       0.274800
     17 H8           4.1160    -0.0050    -2.1440 ha         1 X0V       0.114000
     18 H21N         6.1780    -0.8660    -0.0300 hn         1 X0V       0.276800
     19 H22N         6.1780     0.8680    -0.0310 hn         1 X0V       0.276800
@<TRIPOS>BOND
     1     1     2 1   
     2     1     7 1   
     3     1     8 1   
     4     1     9 1   
     5     2     4 ar  
     6     2     6 ar  
     7     3     4 ar  
     8     3     5 ar  
     9     3    11 1   
    10     4    13 1   
    11     5    10 ar  
    12     5    12 1   
    13     6    10 ar  
    14     6    14 1   
    15    10    17 1   
    16    11    15 1   
    17    11    16 1   
    18    12    18 1   
    19    12    19 1   
@<TRIPOS>SUBSTRUCTURE
     1 X0V         1 TEMP              0 ****  ****    0 ROOT
