@<TRIPOS>MOLECULE
molecule
   25    26     1     0     0
SMALL
bcc


@<TRIPOS>ATOM
      1 N            0.0000     0.0000     0.0000 nc         1 X0W      -0.582100
      2 C1           1.8670     0.0000     1.2980 ca         1 X0W      -0.052100
      3 O1           5.4540    -0.0000     0.6390 os         1 X0W      -0.307900
      4 C2           3.2440    -0.0010     1.5070 ca         1 X0W      -0.163000
      5 O2           4.4580    -0.0000    -1.9270 os         1 X0W      -0.310900
      6 C3           4.1090    -0.0000     0.4320 ca         1 X0W       0.134100
      7 C4           5.9020     0.0010     1.9950 c3         1 X0W       0.125700
      8 C5           3.6020    -0.0000    -0.8690 ca         1 X0W       0.128100
      9 C6           3.8750    -0.0000    -3.2320 c3         1 X0W       0.124700
     10 C7           2.2440    -0.0000    -1.0880 ca         1 X0W      -0.152000
     11 C8           1.3470     0.0000     0.0000 ca         1 X0W       0.128400
     12 C9          -0.5980     0.0000     1.1310 cd         1 X0W       0.397200
     13 C10         -2.0950     0.0010     1.2990 c3         1 X0W      -0.097400
     14 S            0.5140     0.0000     2.4250 ss         1 X0W      -0.111100
     15 H2           3.6370    -0.0030     2.5170 ha         1 X0W       0.146000
     16 H41C         5.5290     0.8850     2.4980 h1         1 X0W       0.042367
     17 H42C         6.9850     0.0020     2.0180 h1         1 X0W       0.042367
     18 H43C         5.5310    -0.8840     2.4990 h1         1 X0W       0.042367
     19 H61C         4.6600    -0.0000    -3.9790 h1         1 X0W       0.043367
     20 H62C         3.2610    -0.8850    -3.3540 h1         1 X0W       0.043367
     21 H63C         3.2610     0.8850    -3.3540 h1         1 X0W       0.043367
     22 H7           1.8620    -0.0000    -2.1020 ha         1 X0W       0.157000
     23 H101        -2.3400    -0.0290     2.3540 hc         1 X0W       0.059367
     24 H102        -2.5150    -0.8680     0.8060 hc         1 X0W       0.059367
     25 H103        -2.5070     0.9010     0.8590 hc         1 X0W       0.059367
@<TRIPOS>BOND
     1     1    11 1
     2     1    12 2
     3     2     4 ar
     4     2    11 ar
     5     2    14 1
     6     3     6 1
     7     3     7 1
     8     4     6 ar
     9     5     8 1
    10     5     9 1
    11     6     8 ar
    12     8    10 ar
    13    10    11 ar
    14    12    13 1
    15    12    14 1
    16     4    15 1
    17     7    16 1
    18     7    17 1
    19     7    18 1
    20     9    19 1
    21     9    20 1
    22     9    21 1
    23    10    22 1
    24    13    23 1
    25    13    24 1
    26    13    25 1
@<TRIPOS>SUBSTRUCTURE
     1 X0W         1 TEMP              0 ****  ****    0 ROOT
