@<TRIPOS>MOLECULE
X0W
   25    26     1     0     0
SMALL
bcc


@<TRIPOS>ATOM
      1 N          -0.1320    0.0010   -0.1300 nc        1 X0W     -0.525100
      2 C1          1.7720   -0.0000    1.3090 ca        1 X0W     -0.084100
      3 O1          5.3980   -0.0000    0.5760 os        1 X0W     -0.299900
      4 C2          3.1480   -0.0000    1.5520 ca        1 X0W     -0.152000
      5 O2          4.5030    0.0010   -1.8420 os        1 X0W     -0.302900
      6 C3          4.0230   -0.0000    0.4740 ca        1 X0W      0.120100
      7 C4          5.9260   -0.0010    1.8980 c3        1 X0W      0.108700
      8 C5          3.5240    0.0010   -0.8690 ca        1 X0W      0.109100
      9 C6          4.0420    0.0010   -3.1890 c3        1 X0W      0.108700
     10 C7          2.1620    0.0010   -1.1230 ca        1 X0W     -0.138000
     11 C8          1.2680    0.0000   -0.0300 ca        1 X0W      0.089400
     12 C9         -0.6620    0.0000    1.0830 cd        1 X0W      0.368200
     13 C10        -2.1090    0.0000    1.3870 c3        1 X0W     -0.118400
     14 S           0.4820   -0.0010    2.3980 ss        1 X0W     -0.052100
     15 H2          3.5210   -0.0010    2.5860 ha        1 X0W      0.147000
     16 H41C        5.6100    0.9170    2.4510 h1        1 X0W      0.046033
     17 H42C        7.0330   -0.0010    1.7320 h1        1 X0W      0.046033
     18 H43C        5.6100   -0.9190    2.4500 h1        1 X0W      0.046033
     19 H61C        3.4430    0.9190   -3.4010 h1        1 X0W      0.046367
     20 H62C        3.4420   -0.9170   -3.4020 h1        1 X0W      0.046367
     21 H63C        4.9900    0.0010   -3.7840 h1        1 X0W      0.046367
     22 H7          1.7640    0.0010   -2.1480 ha        1 X0W      0.160000
     23 H101       -2.5990    0.9100    0.9560 hc        1 X0W      0.061700
     24 H102       -2.2700   -0.0040    2.4930 hc        1 X0W      0.061700
     25 H103       -2.6020   -0.9040    0.9480 hc        1 X0W      0.061700
@<TRIPOS>BOND
     1    1   11 1   
     2    1   12 2   
     3    2    4 ar  
     4    2   11 ar  
     5    2   14 1   
     6    3    6 1   
     7    3    7 1   
     8    4    6 ar  
     9    4   15 1   
    10    5    8 1   
    11    5    9 1   
    12    6    8 ar  
    13    7   16 1   
    14    7   17 1   
    15    7   18 1   
    16    8   10 ar  
    17    9   19 1   
    18    9   20 1   
    19    9   21 1   
    20   10   11 ar  
    21   10   22 1   
    22   12   13 1   
    23   12   14 1   
    24   13   23 1   
    25   13   24 1   
    26   13   25 1   
@<TRIPOS>SUBSTRUCTURE
     1 X0W         1 TEMP              0 ****  ****    0 ROOT
