@<TRIPOS>MOLECULE
X11
   24    25     1     0     0
SMALL
bcc


@<TRIPOS>ATOM
      1 N1           0.0000     0.0000     0.0000 nb         1 X11      -0.666500
      2 C2           1.3300     0.0000     0.0000 ca         1 X11       0.751900
      3 N3           1.9940     0.0000     1.1510 nb         1 X11      -0.695000
      4 C4           1.3310     0.0020     2.3020 ca         1 X11       0.751900
      5 N5           0.0010     0.0030     2.3040 nb         1 X11      -0.666500
      6 C6          -0.6650     0.0020     1.1520 cp         1 X11       0.719500
      7 N7           2.0190    -0.0030    -1.1960 nv         1 X11      -0.636000
      8 N8           2.0220     0.0030     3.4970 nv         1 X11      -0.636000
      9 C9          -2.1460     0.0030     1.1540 cp         1 X11      -0.213500
     10 C10         -2.8490     0.0060     2.3630 ca         1 X11       0.192100
     11 C11         -4.2350     0.0070     2.3540 ca         1 X11      -0.211000
     12 C12         -4.9180     0.0060     1.1540 ca         1 X11      -0.039000
     13 C13         -4.2270     0.0040    -0.0450 ca         1 X11      -0.155000
     14 C14         -2.8480     0.0090    -0.0520 ca         1 X11      -0.021000
     15 O15         -2.1750     0.0060     3.5420 oh         1 X11      -0.447100
     16 HN7          2.2780     0.8620    -1.6270 hn         1 X11       0.282800
     17 HN7A         2.2760    -0.8710    -1.6230 hn         1 X11       0.282800
     18 HN8          2.2770    -0.8630     3.9280 hn         1 X11       0.282800
     19 HN8A         2.2870     0.8700     3.9210 hn         1 X11       0.282800
     20 H11         -4.7830     0.0090     3.2880 ha         1 X11       0.113000
     21 H12         -6.0020     0.0050     1.1510 ha         1 X11       0.100000
     22 H13         -4.7710     0.0060    -0.9820 ha         1 X11       0.108000
     23 H14         -2.3100     0.0070    -0.9920 ha         1 X11       0.125000
     24 HO15        -2.6440     0.5270     4.1720 ho         1 X11       0.394000
@<TRIPOS>BOND
     1     1     2 ar  
     2     1     6 ar  
     3     2     3 ar  
     4     2     7 1   
     5     3     4 ar  
     6     4     5 ar  
     7     4     8 1   
     8     5     6 ar  
     9     6     9 1   
    10     7    16 1   
    11     7    17 1   
    12     8    18 1   
    13     8    19 1   
    14     9    10 ar  
    15     9    14 ar  
    16    10    11 ar  
    17    10    15 1   
    18    11    12 ar  
    19    11    20 1   
    20    12    13 ar  
    21    12    21 1   
    22    13    14 ar  
    23    13    22 1   
    24    14    23 1   
    25    15    24 1   
@<TRIPOS>SUBSTRUCTURE
     1 X11         1 TEMP              0 ****  ****    0 ROOT
