@<TRIPOS>MOLECULE
X13
   60    59     1     0     0
SMALL
bcc


@<TRIPOS>ATOM
      1 C4           0.0000     0.0000     0.0000 c3         1 X13       0.105700
      2 C5           1.5300     0.0000     0.0000 c3         1 X13      -0.080400
      3 C6           2.0400     0.0000     1.4420 c3         1 X13      -0.021400
      4 C7           3.5700    -0.0000     1.4420 c3         1 X13      -0.026400
      5 C8           4.0800     0.0000     2.8850 c3         1 X13      -0.028400
      6 C9           5.6100     0.0000     2.8850 c3         1 X13      -0.028400
      7 C10          6.1200     0.0010     4.3280 c3         1 X13      -0.028400
      8 C11          7.6500     0.0000     4.3270 c3         1 X13      -0.027400
      9 C12          8.1600     0.0010     5.7700 c3         1 X13      -0.026400
     10 C13          9.6890     0.0010     5.7700 c3         1 X13      -0.026400
     11 C14         10.2000     0.0010     7.2120 c3         1 X13      -0.019400
     12 C15         11.7300     0.0020     7.2120 c3         1 X13      -0.052400
     13 C16         12.2400     0.0020     8.6550 c3         1 X13      -0.015200
     14 N1          13.7090     0.0020     8.6560 n4         1 X13       0.050200
     15 C19         14.1990    -1.1980     7.9630 c3         1 X13       0.015100
     16 S18         -0.6050    -0.0010    -1.7100 ss         1 X13      -0.264000
     17 S19         -0.1150    -1.8780    -2.3720 s6         1 X13       0.854700
     18 O1          -0.3340    -1.8240    -3.7750 o          1 X13      -0.533300
     19 O2           1.1830    -2.1090    -1.8410 o          1 X13      -0.533300
     20 C20         -1.3300    -2.9680    -1.5800 c3         1 X13       0.019700
     21 C17         14.1990     1.2000     7.9620 c3         1 X13       0.015100
     22 C18         14.1990     0.0020    10.0400 c3         1 X13       0.015100
     23 H41C        -0.3610     0.8850     0.5100 h1         1 X13       0.043200
     24 H42C        -0.3610    -0.8840     0.5110 h1         1 X13       0.043200
     25 H51C         1.8910    -0.8840    -0.5110 hc         1 X13       0.060200
     26 H52C         1.8910     0.8850    -0.5110 hc         1 X13       0.060200
     27 H61C         1.6790    -0.8840     1.9530 hc         1 X13       0.011200
     28 H62C         1.6790     0.8850     1.9530 hc         1 X13       0.011200
     29 H71C         3.9310     0.8850     0.9320 hc         1 X13       0.019700
     30 H72C         3.9310    -0.8840     0.9320 hc         1 X13       0.019700
     31 H81C         3.7190    -0.8850     3.3950 hc         1 X13       0.014200
     32 H82C         3.7180     0.8840     3.3950 hc         1 X13       0.014200
     33 H91C         5.9710     0.8840     2.3740 hc         1 X13       0.016700
     34 H92C         5.9720    -0.8850     2.3750 hc         1 X13       0.016700
     35 H101         5.7580    -0.8830     4.8390 hc         1 X13       0.016200
     36 H102         5.7590     0.8860     4.8380 hc         1 X13       0.016200
     37 H111         8.0120     0.8840     3.8160 hc         1 X13       0.016700
     38 H112         8.0110    -0.8850     3.8170 hc         1 X13       0.016700
     39 H121         7.7990    -0.8830     6.2810 hc         1 X13       0.018700
     40 H122         7.7990     0.8860     6.2800 hc         1 X13       0.018700
     41 H131        10.0500    -0.8840     5.2600 hc         1 X13       0.019700
     42 H132        10.0500     0.8850     5.2590 hc         1 X13       0.019700
     43 H141         9.8390     0.8860     7.7220 hc         1 X13       0.026700
     44 H142         9.8390    -0.8830     7.7230 hc         1 X13       0.026700
     45 H151        12.0920     0.8860     6.7010 hc         1 X13       0.035700
     46 H152        12.0920    -0.8830     6.7020 hc         1 X13       0.035700
     47 H161        11.8790    -0.8820     9.1660 hx         1 X13       0.078700
     48 H162        11.8790     0.8870     9.1650 hx         1 X13       0.078700
     49 H171        14.1740     1.0340     6.8920 hx         1 X13       0.073033
     50 H172        15.2160     1.4060     8.2720 hx         1 X13       0.073033
     51 H173        13.5680     2.0450     8.2110 hx         1 X13       0.073033
     52 H181        13.8390     0.8870    10.5510 hx         1 X13       0.073033
     53 H182        13.8370    -0.8820    10.5510 hx         1 X13       0.073033
     54 H183        15.2820     0.0010    10.0400 hx         1 X13       0.073033
     55 H191        14.1730    -1.0330     6.8920 hx         1 X13       0.073033
     56 H192        13.5680    -2.0430     8.2130 hx         1 X13       0.073033
     57 H193        15.2160    -1.4040     8.2720 hx         1 X13       0.073033
     58 H201        -0.9040    -3.3890    -0.6770 h1         1 X13       0.074033
     59 H202        -1.5950    -3.7680    -2.2610 h1         1 X13       0.074033
     60 H203        -2.2170    -2.3990    -1.3300 h1         1 X13       0.074033
@<TRIPOS>BOND
     1     1     2 1   
     2     1    16 1   
     3     1    23 1   
     4     1    24 1   
     5     2     3 1   
     6     2    25 1   
     7     2    26 1   
     8     3     4 1   
     9     3    27 1   
    10     3    28 1   
    11     4     5 1   
    12     4    29 1   
    13     4    30 1   
    14     5     6 1   
    15     5    31 1   
    16     5    32 1   
    17     6     7 1   
    18     6    33 1   
    19     6    34 1   
    20     7     8 1   
    21     7    35 1   
    22     7    36 1   
    23     8     9 1   
    24     8    37 1   
    25     8    38 1   
    26     9    10 1   
    27     9    39 1   
    28     9    40 1   
    29    10    11 1   
    30    10    41 1   
    31    10    42 1   
    32    11    12 1   
    33    11    43 1   
    34    11    44 1   
    35    12    13 1   
    36    12    45 1   
    37    12    46 1   
    38    13    14 1   
    39    13    47 1   
    40    13    48 1   
    41    14    15 1   
    42    14    21 1   
    43    14    22 1   
    44    15    55 1   
    45    15    56 1   
    46    15    57 1   
    47    16    17 1   
    48    17    18 2   
    49    17    19 2   
    50    17    20 1   
    51    20    58 1   
    52    20    59 1   
    53    20    60 1   
    54    21    49 1   
    55    21    50 1   
    56    21    51 1   
    57    22    52 1   
    58    22    53 1   
    59    22    54 1   
@<TRIPOS>SUBSTRUCTURE
     1 X13         1 TEMP              0 ****  ****    0 ROOT
