@<TRIPOS>MOLECULE
molecule
   60    59     1     0     0
SMALL
bcc


@<TRIPOS>ATOM
      1 C4           0.0000     0.0000     0.0000 c3         1 X13       0.116700
      2 C5           1.5300     0.0000     0.0000 c3         1 X13      -0.112400
      3 C6           2.0400     0.0000     1.4420 c3         1 X13      -0.078400
      4 C7           3.5700    -0.0000     1.4420 c3         1 X13      -0.079400
      5 C8           4.0800     0.0000     2.8850 c3         1 X13      -0.082400
      6 C9           5.6100     0.0000     2.8850 c3         1 X13      -0.081400
      7 C10          6.1200     0.0010     4.3280 c3         1 X13      -0.081400
      8 C11          7.6500     0.0000     4.3270 c3         1 X13      -0.081400
      9 C12          8.1600     0.0010     5.7700 c3         1 X13      -0.081400
     10 C13          9.6890     0.0010     5.7700 c3         1 X13      -0.080400
     11 C14         10.2000     0.0010     7.2120 c3         1 X13      -0.077400
     12 C15         11.7300     0.0020     7.2120 c3         1 X13      -0.110400
     13 C16         12.2400     0.0020     8.6550 c3         1 X13       0.101800
     14 N1          13.7090     0.0020     8.6560 n4         1 X13      -0.577800
     15 C19         14.1990    -1.1980     7.9630 c3         1 X13       0.093433
     16 S18         -0.6050    -0.0010    -1.7100 ss         1 X13      -0.488000
     17 S19         -0.1150    -1.8780    -2.3720 s6         1 X13       1.127700
     18 O1          -0.3340    -1.8240    -3.7750 o          1 X13      -0.537800
     19 O2           1.1830    -2.1090    -1.8410 o          1 X13      -0.537800
     20 C20         -1.3300    -2.9680    -1.5800 c3         1 X13      -0.209300
     21 C17         14.1990     1.2000     7.9620 c3         1 X13       0.093433
     22 C18         14.1990     0.0020    10.0400 c3         1 X13       0.093433
     23 H41C        -0.3610     0.8850     0.5100 h1         1 X13       0.070700
     24 H42C        -0.3610    -0.8840     0.5110 h1         1 X13       0.070700
     25 H51C         1.8910    -0.8840    -0.5110 hc         1 X13       0.079200
     26 H52C         1.8910     0.8850    -0.5110 hc         1 X13       0.079200
     27 H61C         1.6790    -0.8840     1.9530 hc         1 X13       0.039700
     28 H62C         1.6790     0.8850     1.9530 hc         1 X13       0.039700
     29 H71C         3.9310     0.8850     0.9320 hc         1 X13       0.047200
     30 H72C         3.9310    -0.8840     0.9320 hc         1 X13       0.047200
     31 H81C         3.7190    -0.8850     3.3950 hc         1 X13       0.041700
     32 H82C         3.7180     0.8840     3.3950 hc         1 X13       0.041700
     33 H91C         5.9710     0.8840     2.3740 hc         1 X13       0.043700
     34 H92C         5.9720    -0.8850     2.3750 hc         1 X13       0.043700
     35 H101         5.7580    -0.8830     4.8390 hc         1 X13       0.043200
     36 H102         5.7590     0.8860     4.8380 hc         1 X13       0.043200
     37 H111         8.0120     0.8840     3.8160 hc         1 X13       0.044700
     38 H112         8.0110    -0.8850     3.8170 hc         1 X13       0.044700
     39 H121         7.7990    -0.8830     6.2810 hc         1 X13       0.046700
     40 H122         7.7990     0.8860     6.2800 hc         1 X13       0.046700
     41 H131        10.0500    -0.8840     5.2600 hc         1 X13       0.047700
     42 H132        10.0500     0.8850     5.2590 hc         1 X13       0.047700
     43 H141         9.8390     0.8860     7.7220 hc         1 X13       0.055700
     44 H142         9.8390    -0.8830     7.7230 hc         1 X13       0.055700
     45 H151        12.0920     0.8860     6.7010 hc         1 X13       0.061200
     46 H152        12.0920    -0.8830     6.7020 hc         1 X13       0.061200
     47 H161        11.8790    -0.8820     9.1660 hx         1 X13       0.100700
     48 H162        11.8790     0.8870     9.1650 hx         1 X13       0.100700
     49 H171        14.1740     1.0340     6.8920 hx         1 X13       0.098589
     50 H172        15.2160     1.4060     8.2720 hx         1 X13       0.098589
     51 H173        13.5680     2.0450     8.2110 hx         1 X13       0.098589
     52 H181        13.8390     0.8870    10.5510 hx         1 X13       0.098589
     53 H182        13.8370    -0.8820    10.5510 hx         1 X13       0.098589
     54 H183        15.2820     0.0010    10.0400 hx         1 X13       0.098589
     55 H191        14.1730    -1.0330     6.8920 hx         1 X13       0.098589
     56 H192        13.5680    -2.0430     8.2130 hx         1 X13       0.098589
     57 H193        15.2160    -1.4040     8.2720 hx         1 X13       0.098589
     58 H201        -0.9040    -3.3890    -0.6770 h1         1 X13       0.111700
     59 H202        -1.5950    -3.7680    -2.2610 h1         1 X13       0.111700
     60 H203        -2.2170    -2.3990    -1.3300 h1         1 X13       0.111700
@<TRIPOS>BOND
     1     1     2 1
     2     1    16 1
     3     2     3 1
     4     3     4 1
     5     4     5 1
     6     5     6 1
     7     6     7 1
     8     7     8 1
     9     8     9 1
    10     9    10 1
    11    10    11 1
    12    11    12 1
    13    12    13 1
    14    13    14 1
    15    14    21 1
    16    14    22 1
    17    14    15 1
    18     1    23 1
    19     1    24 1
    20     2    25 1
    21     2    26 1
    22     3    27 1
    23     3    28 1
    24     4    29 1
    25     4    30 1
    26     5    31 1
    27     5    32 1
    28     6    33 1
    29     6    34 1
    30     7    35 1
    31     7    36 1
    32     8    37 1
    33     8    38 1
    34     9    39 1
    35     9    40 1
    36    10    41 1
    37    10    42 1
    38    11    43 1
    39    11    44 1
    40    12    45 1
    41    12    46 1
    42    13    47 1
    43    13    48 1
    44    21    49 1
    45    21    50 1
    46    21    51 1
    47    22    52 1
    48    22    53 1
    49    22    54 1
    50    15    55 1
    51    15    56 1
    52    15    57 1
    53    16    17 1
    54    17    18 2
    55    17    19 2
    56    20    17 1
    57    20    58 1
    58    20    59 1
    59    20    60 1
@<TRIPOS>SUBSTRUCTURE
     1 X13         1 TEMP              0 ****  ****    0 ROOT
