@<TRIPOS>MOLECULE
X14
   57    59     1     0     0
SMALL
bcc


@<TRIPOS>ATOM
      1 N01          0.0000     0.0000     0.0000 na         1 X14       0.533400
      2 N02          1.2880     0.0000     0.0000 nc         1 X14      -0.614800
      3 N03         -2.8580    -0.0020     0.8170 ns         1 X14      -0.225900
      4 N04         -9.4320     0.0040    -3.0220 nz         1 X14      -0.130500
      5 C05          1.7500     0.0000     1.2160 cd         1 X14       0.300600
      6 C06          0.6540    -0.0040     2.0890 cd         1 X14      -0.152600
      7 C07         -0.4620    -0.0030     1.2900 cc         1 X14      -0.427900
      8 C08          3.1830     0.0070     1.6890 c3         1 X14      -0.019700
      9 C09          3.1980     0.4270     3.1640 c3         1 X14      -0.045400
     10 C10          2.2000    -0.4200     3.9560 c3         1 X14      -0.043700
     11 C11          0.7680    -0.0120     3.5880 c3         1 X14       0.047900
     12 C12          2.4230    -0.2010     5.4550 c3         1 X14      -0.062000
     13 C13         -1.8660    -0.0030     1.7290 c          1 X14       0.650700
     14 C14         -4.2560    -0.0020     1.2540 c3         1 X14       0.101300
     15 C15         -5.1590     0.0000     0.0480 ca         1 X14      -0.015300
     16 C16         -5.5730    -1.1960    -0.5080 ca         1 X14      -0.094500
     17 C17         -6.4020    -1.1950    -1.6140 ca         1 X14       0.013000
     18 C18         -6.8170     0.0030    -2.1650 ca         1 X14      -0.228500
     19 C19         -6.4030     1.1990    -1.6100 ca         1 X14       0.013000
     20 C20         -5.5780     1.1980    -0.5010 ca         1 X14      -0.094500
     21 C21          2.2170     1.2780     5.7900 c3         1 X14      -0.012100
     22 C22          1.4260    -1.0480     6.2480 c3         1 X14      -0.012100
     23 C23          3.8490    -0.6130     5.8240 c3         1 X14      -0.030400
     24 C24          4.0720    -0.3940     7.3220 c3         1 X14      -0.010100
     25 O25         -2.1320    -0.0040     2.9160 o          1 X14      -0.618100
     26 O26         -7.6750    -1.2430    -4.2260 o          1 X14      -0.493800
     27 O27         -7.6770     1.2560    -4.2220 o          1 X14      -0.493800
     28 S28         -7.8720     0.0060    -3.5760 sy         1 X14       0.937200
     29 HN01        -0.5760     0.0020    -0.8180 hn         1 X14       0.128700
     30 HN03        -2.6390     0.0140    -0.1600 hn         1 X14       0.167500
     31 HN04        -9.5860    -0.8110    -2.4610 hn         1 X14       0.314133
     32 HN0A       -10.0620    -0.0020    -3.7990 hn         1 X14       0.314133
     33 H08          3.6050    -0.9850     1.5890 hc         1 X14       0.025200
     34 H08A         3.7570     0.7150     1.1030 hc         1 X14       0.025200
     35 H09          2.9220     1.4720     3.2420 hc         1 X14       0.029700
     36 H09A         4.1920     0.2810     3.5680 hc         1 X14       0.029700
     37 H10          2.3480    -1.4660     3.7150 hc         1 X14       0.035700
     38 H11          0.5600     0.9790     3.9750 hc         1 X14       0.045200
     39 H11A         0.0670    -0.7260     4.0030 hc         1 X14       0.045200
     40 H14         -4.4480    -0.8870     1.8480 h1         1 X14       0.042200
     41 H14A        -4.4480     0.8820     1.8500 h1         1 X14       0.042200
     42 H16         -5.2480    -2.1340    -0.0760 ha         1 X14       0.138000
     43 H17         -6.7260    -2.1330    -2.0480 ha         1 X14       0.128000
     44 H19         -6.7300     2.1380    -2.0410 ha         1 X14       0.128000
     45 H20         -5.2530     2.1360    -0.0660 ha         1 X14       0.138000
     46 H21          1.9940     1.3810     6.8460 hc         1 X14       0.011867
     47 H21A         1.3920     1.6680     5.2070 hc         1 X14       0.011867
     48 H21B         3.1180     1.8300     5.5560 hc         1 X14       0.011867
     49 H22          1.6660    -0.9940     7.3030 hc         1 X14       0.011867
     50 H22A         0.4230    -0.6710     6.0860 hc         1 X14       0.011867
     51 H22B         1.4830    -2.0780     5.9170 hc         1 X14       0.011867
     52 H23          4.5550    -0.0130     5.2620 hc         1 X14       0.019700
     53 H23A         3.9950    -1.6600     5.5860 hc         1 X14       0.019700
     54 H24          5.0940    -0.0760     7.4920 hc         1 X14       0.007700
     55 H24A         3.3930     0.3700     7.6800 hc         1 X14       0.007700
     56 H24B         3.8880    -1.3200     7.8530 hc         1 X14       0.007700
     57 H043        -9.5890     0.8200    -2.4650 hn         1 X14       0.314133
@<TRIPOS>BOND
     1     1     2 1   
     2     1     7 1   
     3     1    29 1   
     4     2     5 2   
     5     3    13 1   
     6     3    14 1   
     7     3    30 1   
     8     4    28 1   
     9     4    31 1   
    10     4    32 1   
    11     4    57 1   
    12     5     6 1   
    13     5     8 1   
    14     6     7 2   
    15     6    11 1   
    16     7    13 1   
    17     8     9 1   
    18     8    33 1   
    19     8    34 1   
    20     9    10 1   
    21     9    35 1   
    22     9    36 1   
    23    10    11 1   
    24    10    12 1   
    25    10    37 1   
    26    11    38 1   
    27    11    39 1   
    28    12    21 1   
    29    12    22 1   
    30    12    23 1   
    31    13    25 2   
    32    14    15 1   
    33    14    40 1   
    34    14    41 1   
    35    15    16 ar  
    36    15    20 ar  
    37    16    17 ar  
    38    16    42 1   
    39    17    18 ar  
    40    17    43 1   
    41    18    19 ar  
    42    18    28 1   
    43    19    20 ar  
    44    19    44 1   
    45    20    45 1   
    46    21    46 1   
    47    21    47 1   
    48    21    48 1   
    49    22    49 1   
    50    22    50 1   
    51    22    51 1   
    52    23    24 1   
    53    23    52 1   
    54    23    53 1   
    55    24    54 1   
    56    24    55 1   
    57    24    56 1   
    58    26    28 2   
    59    27    28 2   
@<TRIPOS>SUBSTRUCTURE
     1 X14         1 TEMP              0 ****  ****    0 ROOT
