@<TRIPOS>MOLECULE
molecule
   19    18     1     0     0
SMALL
bcc


@<TRIPOS>ATOM
      1 OAG          0.0000     0.0000     0.0000 o          1 X15      -0.916833
      2 PAO          1.6090     0.0000     0.0000 p5         1 X15       1.192900
      3 OAH          2.1030     0.0000     1.3960 o          1 X15      -0.916833
      4 OAF          2.1470    -1.3140    -0.7590 o          1 X15      -0.916833
      5 OAK          2.1470     1.3150    -0.7590 os         1 X15      -0.519500
      6 CAM          3.4730     1.5210    -0.7570 c          1 X15       0.654100
      7 OAB          4.2050     0.7360    -0.2020 o          1 X15      -0.558000
      8 CAL          4.0490     2.7310    -1.4480 c3         1 X15       0.069100
      9 OAA          5.4750     2.6670    -1.4080 oh         1 X15      -0.585800
     10 CAI          3.5740     3.9990    -0.7350 c3         1 X15       0.224400
     11 OAJ          4.0240     5.1470    -1.4560 os         1 X15      -0.606200
     12 PAN          3.7050     6.6550    -0.9900 p5         1 X15       1.228900
     13 OAD          4.4710     7.6880    -1.9580 o          1 X15      -0.937167
     14 OAE          2.1190     6.9180    -1.0720 o          1 X15      -0.937167
     15 OAC          4.1670     6.8490     0.4020 o          1 X15      -0.937167
     16 HAL          3.7170     2.7500    -2.4790 h1         1 X15       0.028700
     17 HAA          5.8020     2.4010    -2.2510 ho         1 X15       0.354000
     18 HAI1         2.4920     4.0030    -0.6870 h1         1 X15       0.040200
     19 HAI2         3.9800     4.0220     0.2690 h1         1 X15       0.040200
@<TRIPOS>BOND
     1     1     2 1
     2     2     3 1
     3     2     4 1
     4     2     5 1
     5     5     6 1
     6     6     7 2
     7     6     8 1
     8     8     9 1
     9     8    10 1
    10    10    11 1
    11    11    12 1
    12    12    13 1
    13    12    14 1
    14    12    15 1
    15     8    16 1
    16     9    17 1
    17    10    18 1
    18    10    19 1
@<TRIPOS>SUBSTRUCTURE
     1 X15         1 TEMP              0 ****  ****    0 ROOT
