@<TRIPOS>MOLECULE
X15
   19    18     1     0     0
SMALL
bcc


@<TRIPOS>ATOM
      1 OAG         0.9310   -1.1710   -1.4430 o         1 X15     -0.938500
      2 PAO         1.8030   -0.6300   -0.3320 p5        1 X15      1.334900
      3 OAH         1.0120   -0.2440    0.8880 o         1 X15     -0.938500
      4 OAF         3.0500   -1.4480   -0.1320 o         1 X15     -0.938500
      5 OAK         2.2710    0.8650   -1.1330 os        1 X15     -0.523500
      6 CAM         3.0880    1.6950   -0.5200 c         1 X15      0.667100
      7 OAB         3.4640    1.3670    0.6210 o         1 X15     -0.645000
      8 CAL         3.4660    2.9730   -1.2770 c3        1 X15      0.064100
      9 OAA         4.8150    2.8640   -1.7090 oh        1 X15     -0.667800
     10 CAI         3.2610    4.2670   -0.4510 c3        1 X15      0.196400
     11 OAJ         3.1770    5.3730   -1.2770 os        1 X15     -0.594200
     12 PAN         4.4320    6.5320   -1.1710 p5        1 X15      1.329900
     13 OAD         4.0470    7.5560   -2.2130 o         1 X15     -0.948500
     14 OAE         4.3750    7.0460    0.2470 o         1 X15     -0.948500
     15 OAC         5.6540    5.7060   -1.5050 o         1 X15     -0.948500
     16 HAL         2.8190    3.0290   -2.1990 h1        1 X15      0.028700
     17 HAA         5.1860    3.7740   -1.6880 ho        1 X15      0.463000
     18 HAI1        2.2970    4.1580    0.1220 h1        1 X15      0.003700
     19 HAI2        4.1110    4.3810    0.2770 h1        1 X15      0.003700
@<TRIPOS>BOND
     1    1    2 1   
     2    2    3 1   
     3    2    4 1   
     4    2    5 1   
     5    5    6 1   
     6    6    7 2   
     7    6    8 1   
     8    8    9 1   
     9    8   10 1   
    10    8   16 1   
    11    9   17 1   
    12   10   11 1   
    13   10   18 1   
    14   10   19 1   
    15   11   12 1   
    16   12   13 1   
    17   12   14 1   
    18   12   15 1   
@<TRIPOS>SUBSTRUCTURE
     1 X15         1 TEMP              0 ****  ****    0 ROOT
