@<TRIPOS>MOLECULE
X16
   52    54     1     0     0
SMALL
bcc


@<TRIPOS>ATOM
      1 C1         -0.0000   -1.7490   -0.8810 c3        1 X16     -0.168100
      2 C2          1.1980   -0.8230   -0.8700 c3        1 X16      0.124100
      3 C3          1.9470   -0.8720    0.4890 c3        1 X16      0.039200
      4 C4          3.2520   -0.0430    0.5140 c2        1 X16      0.619600
      5 N5          3.6290    0.7630   -0.4660 nh        1 X16     -0.408100
      6 O6          0.8350    0.5370   -1.0480 oh        1 X16     -0.649800
      7 N7          1.0630   -0.4400    1.6160 n4        1 X16     -0.832600
      8 O8          3.9540   -0.2080    1.5960 os        1 X16     -0.547300
      9 S9          5.8300   -0.3250    1.9490 sy        1 X16      1.731800
     10 O10         5.8120   -1.6490    1.6380 o         1 X16     -0.601800
     11 O11         6.0570    0.6260    0.9920 o         1 X16     -0.601800
     12 C12         5.9810    0.0860    3.4460 ca        1 X16     -0.583500
     13 C13         5.9050   -0.8850    4.4800 ca        1 X16      0.011000
     14 C14         6.1200   -0.5410    5.8020 ca        1 X16     -0.145000
     15 C15         6.4270    0.7800    6.1460 ca        1 X16      0.029000
     16 C16         6.5140    1.7730    5.1500 cp        1 X16     -0.022000
     17 C17         6.2850    1.4190    3.8230 ca        1 X16      0.019000
     18 C18         6.8680    3.1460    5.5100 cp        1 X16     -0.069000
     19 C19         6.2160    4.2340    4.8750 ca        1 X16     -0.172000
     20 C20         6.5420    5.5290    5.2100 ca        1 X16     -0.052000
     21 C21         7.5280    5.8010    6.1810 ca        1 X16     -0.308600
     22 C22         8.1930    4.7160    6.8330 ca        1 X16      0.465600
     23 C23         7.8350    3.3770    6.4650 ca        1 X16     -0.148300
     24 N24         9.1540    4.9080    7.7950 nb        1 X16     -0.745000
     25 C25         9.4570    6.1860    8.1100 ca        1 X16      0.734300
     26 N26         8.8940    7.3150    7.5510 nb        1 X16     -0.777000
     27 C27         7.9360    7.1440    6.6030 ca        1 X16      0.732200
     28 N28         7.3320    8.2560    6.0720 nh        1 X16     -0.954500
     29 C29        10.5100    6.4300    9.1660 c3        1 X16     -0.145400
     30 H1         -0.3710   -1.8650   -1.9340 hc        1 X16      0.087033
     31 H1A         0.2740   -2.7660   -0.5080 hc        1 X16      0.087033
     32 H1B        -0.8440   -1.3390   -0.2740 hc        1 X16      0.087033
     33 H2          1.9300   -1.1340   -1.6730 h1        1 X16      0.104700
     34 H3          2.2620   -1.9500    0.6770 hx        1 X16      0.168700
     35 HN5         4.5300    1.2240   -0.4430 hn        1 X16      0.357700
     36 HO6         0.1910    0.5930   -1.7720 ho        1 X16      0.480000
     37 HN7         0.6300    0.4670    1.3850 hn        1 X16      0.485133
     38 HN7A        0.3160   -1.1370    1.7430 hn        1 X16      0.485133
     39 H13         5.6910   -1.9380    4.2140 ha        1 X16      0.167000
     40 H14         6.0650   -1.3120    6.5910 ha        1 X16      0.184000
     41 H15         6.6070    1.0500    7.2050 ha        1 X16      0.189000
     42 H17         6.3690    2.1950    3.0370 ha        1 X16      0.171000
     43 H19         5.4380    4.0360    4.1260 ha        1 X16      0.116000
     44 H20         6.0100    6.3510    4.7060 ha        1 X16      0.135000
     45 H23         8.3620    2.5430    6.9580 ha        1 X16      0.158000
     46 HN28        7.6450    9.1630    6.3300 hn        1 X16      0.447800
     47 HN2A        6.7610    8.1650    5.2710 hn        1 X16      0.447800
     48 H29        10.0580    7.0040   10.0140 hc        1 X16      0.075700
     49 H29A       11.3440    7.0340    8.7280 hc        1 X16      0.075700
     50 H29B       10.9230    5.4680    9.5560 hc        1 X16      0.075700
     51 H52         3.0360    0.9360   -1.2590 hn        1 X16      0.357700
     52 H73         1.6090   -0.3560    2.4840 hn        1 X16      0.485133
@<TRIPOS>BOND
     1    1    2 1   
     2    1   30 1   
     3    1   31 1   
     4    1   32 1   
     5    2    3 1   
     6    2    6 1   
     7    2   33 1   
     8    3    4 1   
     9    3    7 1   
    10    3   34 1   
    11    4    5 2   
    12    4    8 1   
    13    5   35 1   
    14    5   51 1   
    15    6   36 1   
    16    7   37 1   
    17    7   38 1   
    18    7   52 1   
    19    8    9 1   
    20    9   10 2   
    21    9   11 2   
    22    9   12 1   
    23   12   13 ar  
    24   12   17 ar  
    25   13   14 ar  
    26   13   39 1   
    27   14   15 ar  
    28   14   40 1   
    29   15   16 ar  
    30   15   41 1   
    31   16   17 ar  
    32   16   18 1   
    33   17   42 1   
    34   18   19 ar  
    35   18   23 ar  
    36   19   20 ar  
    37   19   43 1   
    38   20   21 ar  
    39   20   44 1   
    40   21   22 ar  
    41   21   27 ar  
    42   22   23 ar  
    43   22   24 ar  
    44   23   45 1   
    45   24   25 ar  
    46   25   26 ar  
    47   25   29 1   
    48   26   27 ar  
    49   27   28 1   
    50   28   46 1   
    51   28   47 1   
    52   29   48 1   
    53   29   49 1   
    54   29   50 1   
@<TRIPOS>SUBSTRUCTURE
     1 X16         1 TEMP              0 ****  ****    0 ROOT
