@<TRIPOS>MOLECULE
X17
   57    61     1     0     0
SMALL
bcc


@<TRIPOS>ATOM
      1 C1           0.0000     0.0000     0.0000 c3         1 X17       0.070200
      2 N1           4.6010    -1.8650     3.7770 n          1 X17      -0.050300
      3 O1           1.5220    -0.0070    -2.3780 os         1 X17      -0.293900
      4 C2           1.5070     0.0000     0.0000 ca         1 X17      -0.110300
      5 N2           5.6780    -0.5700     2.3230 n2         1 X17      -0.408900
      6 O2           2.5480    -0.8460     3.9500 o          1 X17      -0.539500
      7 C3           2.1990     0.0000     1.1950 ca         1 X17      -0.064000
      8 N3           6.8780    -2.4130     3.1640 nz         1 X17       0.224400
      9 C4           3.5810     0.0010     1.1950 ca         1 X17      -0.163300
     10 C5           4.2740     0.0010    -0.0010 ca         1 X17      -0.054000
     11 C6           3.5880     0.0010    -1.1980 ca         1 X17      -0.204000
     12 C7           2.2010    -0.0060    -1.2010 ca         1 X17       0.179100
     13 C8           2.3020    -0.0020    -3.5760 c3         1 X17       0.242700
     14 C9           4.3330     0.0020     2.5020 c3         1 X17       0.096500
     15 C10          3.6710    -0.9270     3.4990 c          1 X17       0.625500
     16 C11          5.7570    -1.6220     3.0780 c2         1 X17       0.054800
     17 C13          4.4250     1.4220     3.0660 c3         1 X17       0.021000
     18 C14          3.0150     1.9910     3.2430 c3         1 X17      -0.043400
     19 C15          3.1060     3.4100     3.8070 c3         1 X17      -0.019700
     20 C16          3.8960     4.2940     2.8400 c3         1 X17      -0.047733
     21 C17          5.3040     3.7250     2.6620 c3         1 X17      -0.019700
     22 C18          5.2140     2.3060     2.0980 c3         1 X17      -0.043400
     23 C19          6.0140     3.6900     4.0160 c3         1 X17      -0.047733
     24 C20          5.2260     2.8070     4.9840 c3         1 X17      -0.019700
     25 C21          3.8170     3.3760     5.1620 c3         1 X17      -0.047733
     26 C22          5.1350     1.3880     4.4200 c3         1 X17      -0.043400
     27 H1          -0.3610     0.0330     1.0210 hc         1 X17       0.017033
     28 H1A         -0.3610     0.8680    -0.5390 hc         1 X17       0.017033
     29 H1B         -0.3610    -0.9000    -0.4820 hc         1 X17       0.017033
     30 H3           1.6580    -0.0000     2.1340 ha         1 X17       0.144000
     31 HN3          7.5840    -2.0600     2.5490 hn         1 X17       0.221133
     32 HN3A         7.2210    -2.4040     4.1050 hn         1 X17       0.221133
     33 H5           5.3580     0.0040     0.0020 ha         1 X17       0.108000
     34 H6           4.1320     0.0010    -2.1350 ha         1 X17       0.131000
     35 H8           2.9410    -0.8760    -3.5950 h1         1 X17       0.003367
     36 H8A          2.9120     0.8930    -3.6060 h1         1 X17       0.003367
     37 H8B          1.6430    -0.0180    -4.4360 h1         1 X17       0.003367
     38 H12          3.4060    -2.9400     5.1170 h1         1 X17       0.034367
     39 H12A         4.5360    -3.9190     4.1720 h1         1 X17       0.034367
     40 H12B         5.1320    -2.9200     5.5040 h1         1 X17       0.034367
     41 H14          2.5120     2.0160     2.2840 hc         1 X17       0.026367
     42 H14A         2.4560     1.3650     3.9280 hc         1 X17       0.026367
     43 H15          2.1080     3.8140     3.9320 hc         1 X17       0.031700
     44 H16          3.0400     4.6810     2.3000 hc         1 X17       0.029533
     45 H16A         4.1430     5.1670     3.4310 hc         1 X17       0.029533
     46 H17          5.8630     4.3510     1.9770 hc         1 X17       0.031700
     47 H18          5.3110     2.5820     1.0550 hc         1 X17       0.026367
     48 H18A         6.2020     1.8970     2.2680 hc         1 X17       0.026367
     49 H19          6.0790     4.6950     4.4160 hc         1 X17       0.029533
     50 H19A         7.0120     3.2870     3.8910 hc         1 X17       0.029533
     51 H20          5.7290     2.7830     5.9430 hc         1 X17       0.031700
     52 H21          3.6980     3.0880     6.2000 hc         1 X17       0.029533
     53 H21A         3.9820     4.4390     5.2900 hc         1 X17       0.029533
     54 H22          6.1330     0.9850     4.2950 hc         1 X17       0.026367
     55 H22A         4.5760     0.7620     5.1050 hc         1 X17       0.026367
     56 H33          6.6550    -3.3420     2.8650 hn         1 X17       0.221133
     57 C12          4.4060    -2.9840     4.7030 c3         1 X17       0.066300
@<TRIPOS>BOND
     1     1     4 1   
     2     1    27 1   
     3     1    28 1   
     4     1    29 1   
     5     2    15 1   
     6     2    16 1   
     7     2    57 1   
     8     3    12 1   
     9     3    13 1   
    10     4     7 ar  
    11     4    12 ar  
    12     5    14 1   
    13     5    16 2   
    14     6    15 2   
    15     7     9 ar  
    16     7    30 1   
    17     8    16 1   
    18     8    31 1   
    19     8    32 1   
    20     8    56 1   
    21     9    10 ar  
    22     9    14 1   
    23    10    11 ar  
    24    10    33 1   
    25    11    12 ar  
    26    11    34 1   
    27    13    35 1   
    28    13    36 1   
    29    13    37 1   
    30    14    15 1   
    31    14    17 1   
    32    17    18 1   
    33    17    22 1   
    34    17    26 1   
    35    18    19 1   
    36    18    41 1   
    37    18    42 1   
    38    19    20 1   
    39    19    25 1   
    40    19    43 1   
    41    20    21 1   
    42    20    44 1   
    43    20    45 1   
    44    21    22 1   
    45    21    23 1   
    46    21    46 1   
    47    22    47 1   
    48    22    48 1   
    49    23    24 1   
    50    23    49 1   
    51    23    50 1   
    52    24    25 1   
    53    24    26 1   
    54    24    51 1   
    55    25    52 1   
    56    25    53 1   
    57    26    54 1   
    58    26    55 1   
    59    38    57 1   
    60    39    57 1   
    61    40    57 1   
@<TRIPOS>SUBSTRUCTURE
     1 X17         1 TEMP              0 ****  ****    0 ROOT
