@<TRIPOS>MOLECULE
X19
   41    42     1     0     0
SMALL
bcc


@<TRIPOS>ATOM
      1 N01          0.0000     0.0000     0.0000 na         1 X19       0.539400
      2 N02          1.2880     0.0000     0.0000 nc         1 X19      -0.629800
      3 N03         -2.8580    -0.0020     0.8150 ns         1 X19      -0.206900
      4 C04          1.7500     0.0000     1.2160 cd         1 X19       0.292600
      5 C05          0.6530     0.0020     2.0890 cd         1 X19      -0.170600
      6 C06         -0.4620     0.0000     1.2900 cc         1 X19      -0.408900
      7 C07          3.1820    -0.0070     1.6890 c3         1 X19      -0.016700
      8 C08          3.1980    -0.4280     3.1640 c3         1 X19      -0.045400
      9 C09          2.2000     0.4180     3.9570 c3         1 X19      -0.043700
     10 C10          0.7660     0.0080     3.5880 c3         1 X19       0.052900
     11 C11          2.4220     0.1970     5.4550 c3         1 X19      -0.061000
     12 C12         -1.8660    -0.0000     1.7290 c          1 X19       0.637700
     13 C13         -4.2560    -0.0030     1.2530 c3         1 X19       0.091300
     14 C14          1.4240     1.0420     6.2480 c3         1 X19      -0.013600
     15 C15          2.2170    -1.2830     5.7880 c3         1 X19      -0.013600
     16 C16          3.8480     0.6100     5.8250 c3         1 X19      -0.030400
     17 C17          4.0710     0.3890     7.3220 c3         1 X19      -0.010100
     18 O18         -2.1330     0.0010     2.9160 o          1 X19      -0.632100
     19 HN01        -0.5760    -0.0000    -0.8180 hn         1 X19       0.132700
     20 HN03        -2.6390     0.0200    -0.1610 hn         1 X19       0.159500
     21 H07          3.7560    -0.7140     1.1030 hc         1 X19       0.020700
     22 H07A         3.6040     0.9860     1.5890 hc         1 X19       0.020700
     23 H08          2.9240    -1.4730     3.2410 hc         1 X19       0.026200
     24 H08A         4.1930    -0.2810     3.5670 hc         1 X19       0.026200
     25 H09          2.3460     1.4640     3.7170 hc         1 X19       0.034700
     26 H10          0.5600    -0.9830     3.9730 hc         1 X19       0.044700
     27 H10A         0.0650     0.7210     4.0040 hc         1 X19       0.044700
     28 H13         -4.4480    -0.8880     1.8470 h1         1 X19       0.010700
     29 H13A        -4.4480     0.8810     1.8490 h1         1 X19       0.010700
     30 H13B        -4.9050    -0.0020     0.3860 h1         1 X19       0.010700
     31 H14          0.4140     0.7360     6.0020 hc         1 X19       0.012200
     32 H14A         1.5550     2.0880     5.9960 hc         1 X19       0.012200
     33 H14B         1.5950     0.9030     7.3090 hc         1 X19       0.012200
     34 H15          1.3130    -1.6390     5.3090 hc         1 X19       0.012200
     35 H15A         3.0640    -1.8550     5.4310 hc         1 X19       0.012200
     36 H15B         2.1280    -1.4020     6.8610 hc         1 X19       0.012200
     37 H16          3.9930     1.6570     5.5890 hc         1 X19       0.018700
     38 H16A         4.5550     0.0120     5.2620 hc         1 X19       0.018700
     39 H17          3.5000     1.1190     7.8830 hc         1 X19       0.005700
     40 H17A         3.7460    -0.6090     7.5920 hc         1 X19       0.005700
     41 H17B         5.1240     0.5000     7.5500 hc         1 X19       0.005700
@<TRIPOS>BOND
     1     1     2 1   
     2     1     6 1   
     3     1    19 1   
     4     2     4 2   
     5     3    12 1   
     6     3    13 1   
     7     3    20 1   
     8     4     5 1   
     9     4     7 1   
    10     5     6 2   
    11     5    10 1   
    12     6    12 1   
    13     7     8 1   
    14     7    21 1   
    15     7    22 1   
    16     8     9 1   
    17     8    23 1   
    18     8    24 1   
    19     9    10 1   
    20     9    11 1   
    21     9    25 1   
    22    10    26 1   
    23    10    27 1   
    24    11    14 1   
    25    11    15 1   
    26    11    16 1   
    27    12    18 2   
    28    13    28 1   
    29    13    29 1   
    30    13    30 1   
    31    14    31 1   
    32    14    32 1   
    33    14    33 1   
    34    15    34 1   
    35    15    35 1   
    36    15    36 1   
    37    16    17 1   
    38    16    37 1   
    39    16    38 1   
    40    17    39 1   
    41    17    40 1   
    42    17    41 1   
@<TRIPOS>SUBSTRUCTURE
     1 X19         1 TEMP              0 ****  ****    0 ROOT
