@<TRIPOS>MOLECULE
molecule
   26    27     1     0     0
SMALL
bcc


@<TRIPOS>ATOM
      1 O13          0.0000     0.0000     0.0000 o          1 X1E      -0.780300
      2 C11          1.3420     0.0000     0.0000 c          1 X1E       0.890600
      3 O12          1.9460     0.0000    -1.0480 o          1 X1E      -0.780300
      4 C3           2.0970     0.0000     1.3040 c3         1 X1E      -0.053300
      5 C2           2.1350    -1.4430     1.8770 c3         1 X1E       0.133100
      6 C10          2.3990    -2.4720     0.7770 c3         1 X1E      -0.076100
      7 C9           0.8530    -1.7710     2.6430 c3         1 X1E      -0.076100
      8 N4           3.4630     0.4830     1.0760 nj         1 X1E      -0.316800
      9 C7           3.7720     1.7360     1.4560 c          1 X1E       0.675500
     10 O8           3.4460     2.8320     1.0510 o          1 X1E      -0.473500
     11 C6           4.6660     1.2750     2.5690 cy         1 X1E      -0.089500
     12 N14          4.0770     1.4160     3.9070 nz         1 X1E      -0.778600
     13 C5           4.4810    -0.1010     1.9520 cy         1 X1E       0.134800
     14 S1           3.5770    -1.2930     3.0140 ss         1 X1E      -0.484200
     15 H3           1.6010     0.6530     2.0110 h1         1 X1E       0.044700
     16 H101         2.7130    -3.4070     1.2240 hc         1 X1E       0.063367
     17 H102         1.4920    -2.6320     0.2060 hc         1 X1E       0.063367
     18 H103         3.1790    -2.1060     0.1200 hc         1 X1E       0.063367
     19 H91C         0.6540    -0.9890     3.3660 hc         1 X1E       0.063367
     20 H92C         0.9710    -2.7170     3.1580 hc         1 X1E       0.063367
     21 H93C         0.0240    -1.8400     1.9490 hc         1 X1E       0.063367
     22 H5           5.3440    -0.4900     1.4260 h2         1 X1E       0.145700
     23 H6           5.6800     1.6460     2.4780 hx         1 X1E       0.133700
     24 H141         4.3230     0.6220     4.4650 hn         1 X1E       0.457800
     25 H142         4.4260     2.2480     4.3390 hn         1 X1E       0.457800
     26 H143         3.0810     1.4720     3.8290 hn         1 X1E       0.457800
@<TRIPOS>BOND
     1     1     2 1
     2     2     3 1
     3     2     4 1
     4     4     5 1
     5     4     8 1
     6     5     6 1
     7     5     7 1
     8     5    14 1
     9     8     9 1
    10     8    13 1
    11     9    10 2
    12     9    11 1
    13    11    12 1
    14    11    13 1
    15    13    14 1
    16     4    15 1
    17     6    16 1
    18     6    17 1
    19     6    18 1
    20     7    19 1
    21     7    20 1
    22     7    21 1
    23    13    22 1
    24    11    23 1
    25    12    24 1
    26    12    25 1
    27    26    12 1
@<TRIPOS>SUBSTRUCTURE
     1 X1E         1 TEMP              0 ****  ****    0 ROOT
