@<TRIPOS>MOLECULE
X1H
   43    46     1     0     0
SMALL
bcc


@<TRIPOS>ATOM
      1 C22        -0.0590    0.6330   -0.0710 c3        1 X1H      0.111700
      2 O3          1.3580    0.7540    0.0050 os        1 X1H     -0.322900
      3 C21         1.9280    0.5090    1.2350 ca        1 X1H      0.157100
      4 C20         3.3330    0.6220    1.2690 ca        1 X1H     -0.201000
      5 C18         4.0000    0.3940    2.4630 ca        1 X1H     -0.040500
      6 C19         1.2100    0.1730    2.3900 ca        1 X1H     -0.201000
      7 C17         1.8990   -0.0490    3.5800 ca        1 X1H     -0.040500
      8 C16         3.2930    0.0590    3.6300 ca        1 X1H     -0.212600
      9 C15         4.0450   -0.1830    4.8770 c         1 X1H      0.619900
     10 O1          5.2830   -0.1750    4.9010 o         1 X1H     -0.535100
     11 C8          3.2550   -0.4260    6.1010 cc        1 X1H     -0.146400
     12 C11         2.7000    0.6620    6.8720 ca        1 X1H     -0.093800
     13 C13         2.7970    2.0410    6.6360 ca        1 X1H     -0.051000
     14 C14         2.1880    2.9260    7.5060 ca        1 X1H     -0.205000
     15 C12         1.4730    2.4370    8.6250 ca        1 X1H      0.132100
     16 O4          0.8470    3.2810    9.5130 oh        1 X1H     -0.496100
     17 C10         1.3650    1.0700    8.8860 ca        1 X1H     -0.132000
     18 C9          1.9850    0.1810    8.0050 ca        1 X1H     -0.049100
     19 S1          2.0370   -1.5000    8.0760 ss        1 X1H      0.041500
     20 C7          2.9710   -1.6500    6.6600 cd        1 X1H      0.011400
     21 C4          3.3700   -2.9620    6.2020 ca        1 X1H     -0.086800
     22 C2          4.6850   -3.2010    5.7730 ca        1 X1H     -0.073000
     23 C1          5.0710   -4.4690    5.3500 ca        1 X1H     -0.187500
     24 C3          4.1340   -5.5110    5.3540 ca        1 X1H      0.135100
     25 O2          4.4410   -6.7890    4.9500 oh        1 X1H     -0.495100
     26 C5          2.8130   -5.2900    5.7810 ca        1 X1H     -0.187500
     27 C6          2.4440   -4.0190    6.2010 ca        1 X1H     -0.073000
     28 H221       -0.2810    0.8640   -1.1430 h1        1 X1H      0.047367
     29 H222       -0.5540    1.3730    0.6040 h1        1 X1H      0.047367
     30 H223       -0.3800   -0.4070    0.1840 h1        1 X1H      0.047367
     31 H20         3.8770    0.8850    0.3510 ha        1 X1H      0.148000
     32 H19         0.1160    0.0810    2.3710 ha        1 X1H      0.148000
     33 H18         5.1000    0.4720    2.5080 ha        1 X1H      0.152000
     34 H17         1.3360   -0.3140    4.4900 ha        1 X1H      0.152000
     35 H13         3.3600    2.4070    5.7640 ha        1 X1H      0.146000
     36 H14         2.2560    4.0110    7.3370 ha        1 X1H      0.137000
     37 H4          1.0180    4.1920    9.2320 ho        1 X1H      0.421000
     38 H10         0.8090    0.7170    9.7640 ha        1 X1H      0.158000
     39 H2          5.4150   -2.3730    5.7700 ha        1 X1H      0.151000
     40 H6          1.4100   -3.8370    6.5360 ha        1 X1H      0.151000
     41 H1          6.1020   -4.6490    5.0150 ha        1 X1H      0.146000
     42 HA          5.3710   -6.8020    4.6810 ho        1 X1H      0.422000
     43 H5          2.0940   -6.1210    5.7750 ha        1 X1H      0.146000
@<TRIPOS>BOND
     1    1    2 1   
     2    1   28 1   
     3    1   29 1   
     4    1   30 1   
     5    2    3 1   
     6    3    4 ar  
     7    3    6 ar  
     8    4    5 ar  
     9    4   31 1   
    10    5    8 ar  
    11    5   33 1   
    12    6    7 ar  
    13    6   32 1   
    14    7    8 ar  
    15    7   34 1   
    16    8    9 1   
    17    9   10 2   
    18    9   11 1   
    19   11   12 1   
    20   11   20 2   
    21   12   13 ar  
    22   12   18 ar  
    23   13   14 ar  
    24   13   35 1   
    25   14   15 ar  
    26   14   36 1   
    27   15   16 1   
    28   15   17 ar  
    29   16   37 1   
    30   17   18 ar  
    31   17   38 1   
    32   18   19 1   
    33   19   20 1   
    34   20   21 1   
    35   21   22 ar  
    36   21   27 ar  
    37   22   23 ar  
    38   22   39 1   
    39   23   24 ar  
    40   23   41 1   
    41   24   25 1   
    42   24   26 ar  
    43   25   42 1   
    44   26   27 ar  
    45   26   43 1   
    46   27   40 1   
@<TRIPOS>SUBSTRUCTURE
     1 X1H         1 TEMP              0 ****  ****    0 ROOT
