@<TRIPOS>MOLECULE
molecule
   43    46     1     0     0
SMALL
bcc


@<TRIPOS>ATOM
      1 C22          0.0000     0.0000     0.0000 c3         1 X1H       0.127700
      2 O3           1.4280     0.0000     0.0000 os         1 X1H      -0.324900
      3 C21          2.0450     0.0000     1.2100 ca         1 X1H       0.172100
      4 C20          3.4290     0.1160     1.2820 ca         1 X1H      -0.207500
      5 C18          4.0570     0.1160     2.5080 ca         1 X1H      -0.034500
      6 C19          1.2910    -0.1090     2.3720 ca         1 X1H      -0.207500
      7 C17          1.9120    -0.1080     3.6010 ca         1 X1H      -0.034500
      8 C16          3.3030     0.0010     3.6790 ca         1 X1H      -0.216600
      9 C15          3.9730     0.0010     4.9940 c          1 X1H       0.616900
     10 O1           5.1730     0.1990     5.0670 o          1 X1H      -0.527100
     11 C8           3.1970    -0.2350     6.2110 cc         1 X1H      -0.152400
     12 C11          2.6600     0.8450     7.0400 ca         1 X1H      -0.062800
     13 C13          2.7710     2.2380     6.8550 ca         1 X1H      -0.077000
     14 C14          2.1950     3.1080     7.7450 ca         1 X1H      -0.149000
     15 C12          1.4950     2.6220     8.8450 ca         1 X1H       0.117100
     16 O4           0.9250     3.4890     9.7240 oh         1 X1H      -0.520100
     17 C10          1.3760     1.2630     9.0430 ca         1 X1H      -0.126000
     18 C9           1.9570     0.3620     8.1430 ca         1 X1H      -0.008100
     19 S1           1.9600    -1.3960     8.1540 ss         1 X1H      -0.064500
     20 C7           2.8990    -1.4860     6.6770 cd         1 X1H       0.050400
     21 C4           3.3150    -2.7410     6.0260 ca         1 X1H      -0.055800
     22 C2           4.6430    -2.9170     5.6260 ca         1 X1H      -0.094000
     23 C1           5.0260    -4.0920     5.0170 ca         1 X1H      -0.153500
     24 C3           4.0960    -5.1010     4.8010 ca         1 X1H       0.116100
     25 O2           4.4790    -6.2580     4.2010 oh         1 X1H      -0.521100
     26 C5           2.7750    -4.9300     5.1960 ca         1 X1H      -0.153500
     27 C6           2.3840    -3.7610     5.8120 ca         1 X1H      -0.094000
     28 H221        -0.3610     0.0670    -1.0190 h1         1 X1H       0.044033
     29 H222        -0.3610     0.8490     0.5670 h1         1 X1H       0.044033
     30 H223        -0.3610    -0.9160     0.4520 h1         1 X1H       0.044033
     31 H20          4.0130     0.2040     0.3740 ha         1 X1H       0.144500
     32 H19          0.2130    -0.1940     2.3120 ha         1 X1H       0.144500
     33 H18          5.1360     0.2030     2.5640 ha         1 X1H       0.149000
     34 H17          1.3240    -0.1950     4.5070 ha         1 X1H       0.149000
     35 H13          3.3140     2.6250     6.0010 ha         1 X1H       0.144000
     36 H14          2.2850     4.1760     7.5900 ha         1 X1H       0.147000
     37 H4           1.5270     3.6650    10.4280 ho         1 X1H       0.422000
     38 H10          0.8300     0.8890     9.9010 ha         1 X1H       0.146000
     39 H2           5.3690    -2.1310     5.7950 ha         1 X1H       0.148000
     40 H6           1.3540    -3.6290     6.1200 ha         1 X1H       0.148000
     41 H1           6.0550    -4.2290     4.7070 ha         1 X1H       0.145000
     42 HA           4.7610    -6.8730     4.8570 ho         1 X1H       0.421000
     43 H5           2.0530    -5.7210     5.0280 ha         1 X1H       0.145000
@<TRIPOS>BOND
     1     1     2 1
     2     2     3 1
     3     3     4 ar
     4     3     6 ar
     5     4     5 ar
     6     5     8 ar
     7     6     7 ar
     8     7     8 ar
     9     8     9 1
    10     9    10 2
    11     9    11 1
    12    11    12 1
    13    11    20 2
    14    12    13 ar
    15    12    18 ar
    16    13    14 ar
    17    14    15 ar
    18    15    16 1
    19    15    17 ar
    20    17    18 ar
    21    18    19 1
    22    19    20 1
    23    20    21 1
    24    21    22 ar
    25    21    27 ar
    26    22    23 ar
    27    23    24 ar
    28    24    25 1
    29    24    26 ar
    30    26    27 ar
    31     1    28 1
    32     1    29 1
    33     1    30 1
    34     4    31 1
    35     6    32 1
    36     5    33 1
    37     7    34 1
    38    13    35 1
    39    14    36 1
    40    16    37 1
    41    17    38 1
    42    22    39 1
    43    27    40 1
    44    23    41 1
    45    25    42 1
    46    26    43 1
@<TRIPOS>SUBSTRUCTURE
     1 X1H         1 TEMP              0 ****  ****    0 ROOT
