@<TRIPOS>MOLECULE
molecule
   37    40     1     0     0
SMALL
bcc


@<TRIPOS>ATOM
      1 O9B          0.0000     0.0000     0.0000 o          1 X1N      -0.197000
      2 N7B          1.2180     0.0000     0.0000 no         1 X1N       0.265100
      3 O8B          1.8270     0.0000     1.0540 o          1 X1N      -0.197000
      4 C3B          1.9590    -0.0060    -1.2820 ce         1 X1N      -0.073100
      5 C2B          1.2550    -0.0120    -2.4350 cf         1 X1N      -0.191600
      6 C4B          3.4130     0.0000    -1.2470 ce         1 X1N      -0.148000
      7 C5B          4.1400    -0.0040    -2.3670 c2         1 X1N      -0.116200
      8 C6B          3.4250    -0.0170    -3.7000 c3         1 X1N      -0.106500
      9 C1B          1.9110    -0.0170    -3.6850 cf         1 X1N       0.522600
     10 N7           1.2260    -0.0240    -4.8040 ne         1 X1N      -0.605700
     11 C2          -0.1300    -0.1340    -4.7710 ca         1 X1N       0.871000
     12 N3          -0.8740     0.9700    -4.8040 nb         1 X1N      -0.739000
     13 C4          -2.1950     0.8790    -4.7730 ca         1 X1N       0.581800
     14 C5A         -3.0790     2.0550    -4.7790 cc         1 X1N      -0.251900
     15 S4A         -2.7080     3.7300    -5.1260 ss         1 X1N      -0.105300
     16 C3A         -4.3470     4.1520    -4.8750 cc         1 X1N       0.446700
     17 C20         -4.9070     5.5440    -5.0130 c3         1 X1N      -0.114400
     18 N2A         -5.0350     3.1090    -4.5490 nd         1 X1N      -0.690000
     19 C1A         -4.4070     1.9590    -4.4590 cd         1 X1N       0.409600
     20 C6A         -4.9990     0.6280    -4.0280 c3         1 X1N      -0.099700
     21 C60         -4.3040    -0.5120    -4.7650 c3         1 X1N      -0.025100
     22 C5          -2.8080    -0.3830    -4.7360 ca         1 X1N      -0.336900
     23 C6          -1.9960    -1.5010    -4.6910 ca         1 X1N       0.478200
     24 N1          -0.6820    -1.3430    -4.7140 nb         1 X1N      -0.750000
     25 H2B          0.1720    -0.0110    -2.4000 ha         1 X1N       0.180000
     26 H4B          3.9190     0.0090    -0.2890 ha         1 X1N       0.166000
     27 H5B          5.2220     0.0010    -2.3220 ha         1 X1N       0.159000
     28 H6B1         3.7480     0.8560    -4.2550 hc         1 X1N       0.092700
     29 H6B2         3.7490    -0.8990    -4.2390 hc         1 X1N       0.092700
     30 H201        -5.6930     5.5450    -5.7590 hc         1 X1N       0.059700
     31 H202        -4.1200     6.2220    -5.3170 hc         1 X1N       0.059700
     32 H203        -5.3130     5.8660    -4.0610 hc         1 X1N       0.059700
     33 H6A1        -4.8380     0.5040    -2.9640 hc         1 X1N       0.070700
     34 H6A2        -6.0520     0.6170    -4.2850 hc         1 X1N       0.070700
     35 H601        -4.6250    -0.4930    -5.8000 hc         1 X1N       0.061200
     36 H602        -4.5730    -1.4430    -4.2810 hc         1 X1N       0.061200
     37 H6          -2.4300    -2.4930    -4.6440 h4         1 X1N       0.037100
@<TRIPOS>BOND
     1     1     2 1
     2     2     3 1
     3     2     4 1
     4     4     5 2
     5     4     6 1
     6     5     9 1
     7     6     7 2
     8     7     8 1
     9     8     9 1
    10     9    10 2
    11    10    11 1
    12    11    12 ar
    13    11    24 ar
    14    12    13 ar
    15    13    14 1
    16    13    22 ar
    17    14    15 1
    18    14    19 2
    19    15    16 1
    20    16    17 1
    21    16    18 2
    22    18    19 1
    23    19    20 1
    24    20    21 1
    25    21    22 1
    26    22    23 ar
    27    23    24 ar
    28     5    25 1
    29     6    26 1
    30     7    27 1
    31     8    28 1
    32     8    29 1
    33    17    30 1
    34    17    31 1
    35    17    32 1
    36    20    33 1
    37    20    34 1
    38    21    35 1
    39    21    36 1
    40    23    37 1
@<TRIPOS>SUBSTRUCTURE
     1 X1N         1 TEMP              0 ****  ****    0 ROOT
