@<TRIPOS>MOLECULE
X1N
   37    40     1     0     0
SMALL
bcc


@<TRIPOS>ATOM
      1 O9B          0.0000     0.0000     0.0000 o          1 X1N      -0.442500
      2 N7B          1.2180     0.0000     0.0000 no         1 X1N       1.014100
      3 O8B          1.8270     0.0000     1.0540 o          1 X1N      -0.442500
      4 C3B          1.9590    -0.0060    -1.2820 ce         1 X1N      -0.358100
      5 C2B          1.2550    -0.0120    -2.4350 cf         1 X1N      -0.113600
      6 C4B          3.4130     0.0000    -1.2470 ce         1 X1N      -0.116000
      7 C5B          4.1400    -0.0040    -2.3670 c2         1 X1N      -0.091200
      8 C6B          3.4250    -0.0170    -3.7000 c3         1 X1N      -0.029500
      9 C1B          1.9110    -0.0170    -3.6850 cf         1 X1N       0.431600
     10 N7           1.2260    -0.0240    -4.8040 ne         1 X1N      -0.476700
     11 C2          -0.1300    -0.1340    -4.7710 ca         1 X1N       0.741000
     12 N3          -0.8740     0.9700    -4.8040 nb         1 X1N      -0.625000
     13 C4          -2.1950     0.8790    -4.7730 ca         1 X1N       0.550800
     14 C5A         -3.0790     2.0550    -4.7790 cc         1 X1N      -0.203900
     15 S4A         -2.7080     3.7300    -5.1260 ss         1 X1N      -0.235300
     16 C3A         -4.3470     4.1520    -4.8750 cc         1 X1N       0.440700
     17 C20         -4.9070     5.5440    -5.0130 c3         1 X1N      -0.000400
     18 N2A         -5.0350     3.1090    -4.5490 nd         1 X1N      -0.559000
     19 C1A         -4.4070     1.9590    -4.4590 cd         1 X1N       0.355600
     20 C6A         -4.9990     0.6280    -4.0280 c3         1 X1N      -0.039700
     21 C60         -4.3040    -0.5120    -4.7650 c3         1 X1N       0.048900
     22 C5          -2.8080    -0.3830    -4.7360 ca         1 X1N      -0.339900
     23 C6          -1.9960    -1.5010    -4.6910 ca         1 X1N       0.468200
     24 N1          -0.6820    -1.3430    -4.7140 nb         1 X1N      -0.647000
     25 H2B          0.1720    -0.0110    -2.4000 ha         1 X1N       0.143000
     26 H4B          3.9190     0.0090    -0.2890 ha         1 X1N       0.137000
     27 H5B          5.2220     0.0010    -2.3220 ha         1 X1N       0.120000
     28 H6B1         3.7480     0.8560    -4.2550 hc         1 X1N       0.048200
     29 H6B2         3.7490    -0.8990    -4.2390 hc         1 X1N       0.048200
     30 H201        -5.6930     5.5450    -5.7590 hc         1 X1N       0.019700
     31 H202        -4.1200     6.2220    -5.3170 hc         1 X1N       0.019700
     32 H203        -5.3130     5.8660    -4.0610 hc         1 X1N       0.019700
     33 H6A1        -4.8380     0.5040    -2.9640 hc         1 X1N       0.034200
     34 H6A2        -6.0520     0.6170    -4.2850 hc         1 X1N       0.034200
     35 H601        -4.6250    -0.4930    -5.8000 hc         1 X1N       0.027700
     36 H602        -4.5730    -1.4430    -4.2810 hc         1 X1N       0.027700
     37 H6          -2.4300    -2.4930    -4.6440 h4         1 X1N      -0.008900
@<TRIPOS>BOND
     1     1     2 1   
     2     2     3 1   
     3     2     4 1   
     4     4     5 2   
     5     4     6 1   
     6     5     9 1   
     7     5    25 1   
     8     6     7 2   
     9     6    26 1   
    10     7     8 1   
    11     7    27 1   
    12     8     9 1   
    13     8    28 1   
    14     8    29 1   
    15     9    10 2   
    16    10    11 1   
    17    11    12 ar  
    18    11    24 ar  
    19    12    13 ar  
    20    13    14 1   
    21    13    22 ar  
    22    14    15 1   
    23    14    19 2   
    24    15    16 1   
    25    16    17 1   
    26    16    18 2   
    27    17    30 1   
    28    17    31 1   
    29    17    32 1   
    30    18    19 1   
    31    19    20 1   
    32    20    21 1   
    33    20    33 1   
    34    20    34 1   
    35    21    22 1   
    36    21    35 1   
    37    21    36 1   
    38    22    23 ar  
    39    23    24 ar  
    40    23    37 1   
@<TRIPOS>SUBSTRUCTURE
     1 X1N         1 TEMP              0 ****  ****    0 ROOT
