@<TRIPOS>MOLECULE
X1P
   23    23     1     0     0
SMALL
bcc


@<TRIPOS>ATOM
      1 C1         -0.1470    0.2850    0.0870 c3        1 X1P      0.373900
      2 O1         -0.7470   -0.6910    0.8040 os        1 X1P     -0.564200
      3 P          -1.6310   -1.8750   -0.1430 p5        1 X1P      1.323900
      4 O1P        -0.4310   -2.6590   -0.6240 o         1 X1P     -0.912833
      5 O2P        -2.5170   -2.5330    0.8660 o         1 X1P     -0.912833
      6 O3P        -2.2660   -1.0070   -1.1900 o         1 X1P     -0.912833
      7 C2          1.4010    0.1150    0.0220 c3        1 X1P      0.085100
      8 O2          1.8190   -1.0200   -0.6880 oh        1 X1P     -0.692800
      9 C3          1.9480    0.0410    1.4610 c3        1 X1P      0.081100
     10 O3          3.3680   -0.0770    1.4680 oh        1 X1P     -0.642800
     11 C4          1.5580    1.3050    2.2350 c3        1 X1P      0.109100
     12 O4          1.9270    1.2300    3.6070 oh        1 X1P     -0.627800
     13 C5          0.0370    1.5170    2.1220 c3        1 X1P      0.128400
     14 O5         -0.3830    1.5340    0.7770 os        1 X1P     -0.470600
     15 H1         -0.6020    0.4270   -0.9370 h2        1 X1P      0.105700
     16 H2          1.8570    1.0010   -0.5000 h1        1 X1P      0.018700
     17 HO2         1.0750   -1.6910   -0.6540 ho        1 X1P      0.507000
     18 H3          1.5080   -0.8670    1.9640 h1        1 X1P      0.071700
     19 HO3         3.5760   -0.6590    0.7240 ho        1 X1P      0.411000
     20 H4          2.1240    2.1920    1.8430 h1        1 X1P      0.054700
     21 HO4         1.6300    0.3690    3.9220 ho        1 X1P      0.395000
     22 H51        -0.2400    2.5220    2.5350 h1        1 X1P      0.036200
     23 H52        -0.4950    0.7060    2.6860 h1        1 X1P      0.036200
@<TRIPOS>BOND
     1    1    2 1   
     2    1    7 1   
     3    1   14 1   
     4    1   15 1   
     5    2    3 1   
     6    3    4 1   
     7    3    5 1   
     8    3    6 1   
     9    7    8 1   
    10    7    9 1   
    11    7   16 1   
    12    8   17 1   
    13    9   10 1   
    14    9   11 1   
    15    9   18 1   
    16   10   19 1   
    17   11   12 1   
    18   11   13 1   
    19   11   20 1   
    20   12   21 1   
    21   13   14 1   
    22   13   22 1   
    23   13   23 1   
@<TRIPOS>SUBSTRUCTURE
     1 X1P         1 TEMP              0 ****  ****    0 ROOT
