@<TRIPOS>MOLECULE
molecule
   23    23     1     0     0
SMALL
bcc


@<TRIPOS>ATOM
      1 C1           0.0000     0.0000     0.0000 c3         1 X1P       0.337900
      2 O1          -0.4730    -1.1540     0.6980 os         1 X1P      -0.530200
      3 P           -1.8840    -1.5540     0.0320 p5         1 X1P       1.135900
      4 O1P         -1.6460    -2.0050    -1.4950 o          1 X1P      -0.900167
      5 O2P         -2.5410    -2.7710     0.8550 o          1 X1P      -0.900167
      6 O3P         -2.7940    -0.3870     0.0650 o          1 X1P      -0.900167
      7 C2           1.5300     0.0000     0.0000 c3         1 X1P       0.115100
      8 O2           2.0080    -1.1670    -0.6730 oh         1 X1P      -0.566800
      9 C3           2.0320     0.0000     1.4490 c3         1 X1P       0.130100
     10 O3           3.4540     0.1480     1.4640 oh         1 X1P      -0.641800
     11 C4           1.3790     1.1690     2.1940 c3         1 X1P       0.097100
     12 O4           1.7120     1.0980     3.5820 oh         1 X1P      -0.612800
     13 C5          -0.1410     1.0810     2.0280 c3         1 X1P       0.116400
     14 O5          -0.4820     1.1760     0.6470 os         1 X1P      -0.396600
     15 H1          -0.3580    -0.0190    -1.0220 h2         1 X1P       0.121700
     16 H2           1.8900     0.8880    -0.5060 h1         1 X1P       0.012700
     17 HO2          2.5100    -0.9110    -1.4290 ho         1 X1P       0.373000
     18 H3           1.7550    -0.9320     1.9260 h1         1 X1P       0.091700
     19 HO3          3.8420    -0.5950     1.8950 ho         1 X1P       0.391000
     20 H4           1.7330     2.1040     1.7780 h1         1 X1P       0.018700
     21 HO4          1.9550     1.9560     3.8900 ho         1 X1P       0.377000
     22 H51         -0.6090     1.8940     2.5700 h1         1 X1P       0.064200
     23 H52         -0.4900     0.1330     2.4190 h1         1 X1P       0.064200
@<TRIPOS>BOND
     1     1     2 1
     2     1     7 1
     3     1    14 1
     4     1    15 1
     5     2     3 1
     6     3     4 1
     7     3     5 1
     8     3     6 1
     9     7     8 1
    10     7     9 1
    11     7    16 1
    12     8    17 1
    13     9    10 1
    14     9    11 1
    15     9    18 1
    16    10    19 1
    17    11    12 1
    18    11    13 1
    19    11    20 1
    20    12    21 1
    21    13    14 1
    22    13    22 1
    23    13    23 1
@<TRIPOS>SUBSTRUCTURE
     1 X1P         1 TEMP              0 ****  ****    0 ROOT
