@<TRIPOS>MOLECULE
molecule
   22    21     1     0     0
SMALL
bcc


@<TRIPOS>ATOM
      1 C3           0.0000     0.0000     0.0000 c3         1 X1R      -0.084100
      2 C4           1.5290     0.0000     0.0000 c3         1 X1R      -0.059400
      3 C5           2.0400     0.0000     1.4420 c3         1 X1R      -0.219600
      4 C7           4.2280     0.0000     3.2170 c3         1 X1R      -0.140600
      5 C8           5.7450    -0.0000     3.4180 c3         1 X1R      -0.168400
      6 C9           6.0560     0.0000     4.8930 c          1 X1R       0.899600
      7 O1           4.3070    -1.2260     0.8840 o          1 X1R      -0.639800
      8 O2           4.3060     1.2260     0.8850 o          1 X1R      -0.639800
      9 O3           5.1570     0.0000     5.7000 o          1 X1R      -0.843800
     10 O4           7.3330    -0.0000     5.3100 o          1 X1R      -0.843800
     11 S5           3.8540    -0.0000     1.4420 s6         1 X1R       1.067000
     12 H31C        -0.3610     0.8840     0.5110 hc         1 X1R       0.029700
     13 H32C        -0.3610     0.0000    -1.0210 hc         1 X1R       0.029700
     14 H33C        -0.3610    -0.8850     0.5110 hc         1 X1R       0.029700
     15 H41C         1.8910     0.8840    -0.5110 hc         1 X1R       0.052700
     16 H42C         1.8910    -0.8840    -0.5110 hc         1 X1R       0.052700
     17 H51C         1.6790     0.8840     1.9530 h1         1 X1R       0.089700
     18 H52C         1.6790    -0.8840     1.9530 h1         1 X1R       0.089700
     19 H71C         3.8030     0.8840     3.6760 h1         1 X1R       0.099700
     20 H72C         3.8030    -0.8840     3.6760 h1         1 X1R       0.099700
     21 H81C         6.1700    -0.8840     2.9600 hc         1 X1R       0.049700
     22 H82C         6.1700     0.8840     2.9600 hc         1 X1R       0.049700
@<TRIPOS>BOND
     1     1     2 1
     2     2     3 1
     3     3    11 1
     4     4     5 1
     5     4    11 1
     6     5     6 1
     7     6     9 1
     8     6    10 1
     9     7    11 2
    10     8    11 2
    11     1    12 1
    12     1    13 1
    13     1    14 1
    14     2    15 1
    15     2    16 1
    16     3    17 1
    17     3    18 1
    18     4    19 1
    19     4    20 1
    20     5    21 1
    21     5    22 1
@<TRIPOS>SUBSTRUCTURE
     1 X1R         1 TEMP              0 ****  ****    0 ROOT
