@<TRIPOS>MOLECULE
X1R
   22    21     1     0     0
SMALL
bcc


@<TRIPOS>ATOM
      1 C3          0.5560    0.9870    0.9900 c3        1 X1R     -0.087100
      2 C4          1.8610    0.3980    0.5190 c3        1 X1R     -0.032400
      3 C5          2.4590   -0.5230    1.5540 c3        1 X1R     -0.356600
      4 C7          4.8180   -1.1200    2.6100 c3        1 X1R     -0.302600
      5 C8          5.2810    0.2400    3.0830 c3        1 X1R     -0.178400
      6 C9          4.3790    0.8460    4.1760 c         1 X1R      0.906600
      7 O1          3.8390   -2.4810    0.7210 o         1 X1R     -0.688800
      8 O2          4.6190   -0.3060    0.1740 o         1 X1R     -0.688800
      9 O3          3.2610    0.2960    4.4200 o         1 X1R     -0.840800
     10 O4          4.8020    1.8710    4.7730 o         1 X1R     -0.840800
     11 S5          3.9870   -1.1300    1.1340 s6        1 X1R      1.302000
     12 H31C        0.1380    1.6710    0.2120 hc        1 X1R      0.031033
     13 H32C       -0.1900    0.1810    1.1910 hc        1 X1R      0.031033
     14 H33C        0.7080    1.5660    1.9330 hc        1 X1R      0.031033
     15 H41C        1.6950   -0.1670   -0.4380 hc        1 X1R      0.043700
     16 H42C        2.5880    1.2240    0.2940 hc        1 X1R      0.043700
     17 H51C        2.4950    0.0350    2.5490 h1        1 X1R      0.152200
     18 H52C        1.7430   -1.3670    1.7450 h1        1 X1R      0.152200
     19 H71C        4.1750   -1.5400    3.4400 h1        1 X1R      0.116700
     20 H72C        5.7050   -1.8040    2.5380 h1        1 X1R      0.116700
     21 H81C        6.3140    0.1640    3.5070 hc        1 X1R      0.046200
     22 H82C        5.3250    0.9580    2.2240 hc        1 X1R      0.046200
@<TRIPOS>BOND
     1    1    2 1   
     2    1   12 1   
     3    1   13 1   
     4    1   14 1   
     5    2    3 1   
     6    2   15 1   
     7    2   16 1   
     8    3   11 1   
     9    3   17 1   
    10    3   18 1   
    11    4    5 1   
    12    4   11 1   
    13    4   19 1   
    14    4   20 1   
    15    5    6 1   
    16    5   21 1   
    17    5   22 1   
    18    6    9 1   
    19    6   10 1   
    20    7   11 2   
    21    8   11 2   
@<TRIPOS>SUBSTRUCTURE
     1 X1R         1 TEMP              0 ****  ****    0 ROOT
