@<TRIPOS>MOLECULE
molecule
   13    12     1     0     0
SMALL
bcc


@<TRIPOS>ATOM
      1 CB           0.0000     0.0000     0.0000 c3         1 X1S      -0.225600
      2 CG           1.5300     0.0000     0.0000 c3         1 X1S      -0.159400
      3 CD           2.0330     0.0000     1.4210 c          1 X1S       0.897600
      4 OE1          1.2480     0.0000     2.3390 o          1 X1S      -0.881300
      5 OE2          3.3520    -0.0000     1.6660 o          1 X1S      -0.881300
      6 O1          -2.1210     0.0000    -1.5760 o          1 X1S      -0.743867
      7 O2          -0.3090     1.2370    -2.3430 o          1 X1S      -0.743867
      8 O3          -0.3090    -1.2370    -2.3430 o          1 X1S      -0.743867
      9 S           -0.6050     0.0000    -1.7100 s6         1 X1S       1.270800
     10 HB1C        -0.3610     0.8840     0.5110 h1         1 X1S       0.075700
     11 HB2C        -0.3610    -0.8840     0.5110 h1         1 X1S       0.075700
     12 HG1C         1.8910    -0.8840    -0.5110 hc         1 X1S       0.029700
     13 HG2C         1.8910     0.8840    -0.5110 hc         1 X1S       0.029700
@<TRIPOS>BOND
     1     1     2 1
     2     1     9 1
     3     2     3 1
     4     3     4 1
     5     3     5 1
     6     6     9 1
     7     7     9 1
     8     8     9 1
     9     1    10 1
    10     1    11 1
    11     2    12 1
    12     2    13 1
@<TRIPOS>SUBSTRUCTURE
     1 X1S         1 TEMP              0 ****  ****    0 ROOT
