@<TRIPOS>MOLECULE
X20
   59    62     1     0     0
SMALL
bcc


@<TRIPOS>ATOM
      1 C          -0.1010   -0.4040    0.3310 c         1 X20      0.779100
      2 N           1.2140   -0.0130   -0.0000 n         1 X20     -0.222200
      3 O          -0.5390   -0.4040    1.4890 o         1 X20     -0.557000
      4 CL          3.2710    1.2850    7.2530 cl        1 X20     -0.055400
      5 C1          2.2390    0.1250    0.9560 ca        1 X20      0.053600
      6 N1          3.4240    0.2720    4.4400 nh        1 X20     -0.709300
      7 O1          8.5580   -2.1370    7.5300 o         1 X20     -0.453100
      8 C2          2.2120    0.0660    2.3560 ca        1 X20     -0.224300
      9 N2          7.2750   -1.6000    9.4000 n4        1 X20     -0.594200
     10 O2         -0.1390    0.7770   -2.6280 os        1 X20     -0.359800
     11 C3          3.4480    0.2690    3.0140 ca        1 X20      0.591200
     12 N3          4.6400    0.5080    2.3660 nb        1 X20     -0.703000
     13 O3         -0.8380   -0.8050   -0.7360 os        1 X20     -0.410900
     14 C4          4.4330   -0.1600    5.2550 ca        1 X20      0.300600
     15 N4          0.3620   -0.0870   -4.6700 nc        1 X20     -0.662000
     16 C5          5.4600   -1.0500    4.8230 ca        1 X20     -0.183000
     17 C6          6.4260   -1.5020    5.6920 ca        1 X20      0.004000
     18 C7          6.4260   -1.1170    7.0530 ca        1 X20     -0.282600
     19 C8          7.4940   -1.6380    7.8770 c         1 X20      0.586700
     20 C9          8.0060   -0.4450    9.9760 c3        1 X20      0.085100
     21 C10         7.7100   -2.8730   10.0230 c3        1 X20      0.085100
     22 C11         5.4250   -0.2410    7.5050 ca        1 X20     -0.034000
     23 C12         4.4500    0.2250    6.6410 ca        1 X20     -0.087600
     24 C13         4.6400    0.5540    1.0320 ca        1 X20      0.469200
     25 C14         3.4790    0.3750    0.2610 ca        1 X20     -0.207100
     26 C15         3.1770    0.3900   -1.1470 cc        1 X20     -0.125200
     27 C16         1.8080    0.1540   -1.2850 cd        1 X20     -0.021200
     28 C17         1.1010    0.1230   -2.5290 cd        1 X20      0.194200
     29 C18         1.3990   -0.4040   -3.7850 cc        1 X20      0.281900
     30 C19        -0.5240    0.6080   -3.9620 cd        1 X20      0.499300
     31 C20        -2.2460   -1.1610   -0.5320 c3        1 X20      0.185800
     32 C21        -3.0210    0.0370   -0.0160 c3        1 X20     -0.117100
     33 C22        -2.6860   -1.5250   -1.9480 c3        1 X20     -0.117100
     34 C23        -2.3630   -2.3590    0.3920 c3        1 X20     -0.117100
     35 HN1         2.7020    0.8400    4.8370 hn        1 X20      0.467800
     36 H2          1.2710   -0.1230    2.8970 ha        1 X20      0.190000
     37 H5          5.4890   -1.3910    3.7740 ha        1 X20      0.184000
     38 H6          7.2180   -2.1810    5.3270 ha        1 X20      0.168000
     39 H9          7.6160    0.5040    9.5180 hx        1 X20      0.105033
     40 H9A         7.8570   -0.4170   11.0880 hx        1 X20      0.105033
     41 H9B         9.1010   -0.5500    9.7460 hx        1 X20      0.105033
     42 H10         7.5660   -2.8160   11.1340 hx        1 X20      0.105033
     43 H10A        7.0990   -3.7150    9.6010 hx        1 X20      0.105033
     44 H10B        8.7950   -3.0520    9.7900 hx        1 X20      0.105033
     45 H11         5.4080    0.1260    8.5460 ha        1 X20      0.132000
     46 H13         5.6190    0.7530    0.5560 h4        1 X20      0.043100
     47 H15         3.8840    0.5710   -1.9540 ha        1 X20      0.180000
     48 H18         2.2660   -0.9810   -4.1090 h4        1 X20      0.062100
     49 H19        -1.4770    1.0590   -4.2470 h5        1 X20      0.096100
     50 H21        -2.8460    0.9200   -0.6750 hc        1 X20      0.058144
     51 H21A       -4.1110   -0.2030   -0.0090 hc        1 X20      0.058144
     52 H21B       -2.7030    0.2930    1.0240 hc        1 X20      0.058144
     53 H22        -3.7930   -1.6550   -1.9620 hc        1 X20      0.058144
     54 H22A       -2.3980   -0.7110   -2.6580 hc        1 X20      0.058144
     55 H22B       -2.1970   -2.4730   -2.2760 hc        1 X20      0.058144
     56 H23        -3.4050   -2.7570    0.3440 hc        1 X20      0.058144
     57 H23A       -2.1350   -2.0700    1.4460 hc        1 X20      0.058144
     58 H23B       -1.6540   -3.1610    0.0750 hc        1 X20      0.058144
     59 H211        6.2710   -1.4810    9.5770 hn        1 X20      0.449800
@<TRIPOS>BOND
     1    1    2 1
     2    1    3 2
     3    1   13 1
     4    2    5 1
     5    2   27 1
     6    4   23 1
     7    5    8 ar
     8    5   25 ar
     9    6   11 1
    10    6   14 1
    11    6   35 1
    12    7   19 2
    13    8   11 ar
    14    8   36 1
    15    9   19 1
    16    9   20 1
    17    9   21 1
    18    9   59 1
    19   10   28 1
    20   10   30 1
    21   11   12 ar
    22   12   24 ar
    23   13   31 1
    24   14   16 ar
    25   14   23 ar
    26   15   29 1
    27   15   30 2
    28   16   17 ar
    29   16   37 1
    30   17   18 ar
    31   17   38 1
    32   18   19 1
    33   18   22 ar
    34   20   39 1
    35   20   40 1
    36   20   41 1
    37   21   42 1
    38   21   43 1
    39   21   44 1
    40   22   23 ar
    41   22   45 1
    42   24   25 ar
    43   24   46 1
    44   25   26 1
    45   26   27 2
    46   26   47 1
    47   27   28 1
    48   28   29 2
    49   29   48 1
    50   30   49 1
    51   31   32 1
    52   31   33 1
    53   31   34 1
    54   32   50 1
    55   32   51 1
    56   32   52 1
    57   33   53 1
    58   33   54 1
    59   33   55 1
    60   34   56 1
    61   34   57 1
    62   34   58 1
@<TRIPOS>SUBSTRUCTURE
     1 X20         1 TEMP              0 ****  ****    0 ROOT
