@<TRIPOS>MOLECULE
X21
   62    66     1     0     0
SMALL
bcc


@<TRIPOS>ATOM
      1 C            0.0000     0.0000     0.0000 c3         1 X21       0.023600
      2 N            1.4640     0.0000     0.0000 na         1 X21       0.497400
      3 O            6.6140     1.1670     0.8770 os         1 X21      -0.398900
      4 C1           3.5330    -0.0000     0.7460 cc         1 X21       0.368200
      5 N1           2.2850     0.0000     1.1340 nd         1 X21      -0.638800
      6 O1           6.5980    -1.0500     0.8180 o          1 X21      -0.556000
      7 C2           2.2550    -0.0050    -1.0930 cd         1 X21      -0.225300
      8 N2           8.1010    -0.0060    -4.6240 nb         1 X21      -0.647000
      9 C3           3.5520    -0.0020    -0.6650 cc         1 X21      -0.264100
     10 N3          10.2510    -0.0030    -3.6810 nu         1 X21      -0.312300
     11 C4           4.7570    -0.0040    -1.5220 cc         1 X21      -0.062600
     12 N4          12.4470     1.0180   -11.3580 nc         1 X21      -0.618000
     13 C5           4.7520    -0.0050    -2.8770 cd         1 X21      -0.131200
     14 N5          13.5870     0.5830    -9.5720 na         1 X21       0.265100
     15 C6           6.1480    -0.0040    -3.3130 ca         1 X21      -0.258100
     16 N6           6.0640    -0.0010    -1.0650 n          1 X21       0.239800
     17 C7           6.7850    -0.0060    -4.5520 ca         1 X21       0.502200
     18 C8           8.8660    -0.0040    -3.5390 ca         1 X21       0.507200
     19 C9          10.8240     0.1410    -4.9480 ca         1 X21       0.020600
     20 C10         12.0730    -0.4120    -5.2120 ca         1 X21      -0.075600
     21 C11         12.6390    -0.2710    -6.4610 ca         1 X21      -0.087000
     22 C12         11.9590     0.4250    -7.4610 ca         1 X21       0.003000
     23 C13         12.2640     0.6900    -9.2080 cd         1 X21      -0.339600
     24 C14         11.5710     0.9620   -10.3470 cc         1 X21       0.335200
     25 C15         13.6510     0.7920   -10.9050 cd         1 X21       0.214400
     26 C17         10.7050     0.9790    -7.1920 ca         1 X21      -0.083000
     27 C18         10.1420     0.8310    -5.9430 ca         1 X21      -0.114000
     28 C19          8.3120    -0.0020    -2.2660 ca         1 X21      -0.295300
     29 C20          6.9300    -0.0020    -2.1370 ca         1 X21      -0.083400
     30 C21          6.4320     0.0010     0.2320 c          1 X21       0.699100
     31 C22          7.0100     1.0940     2.2720 c3         1 X21       0.183800
     32 C23          8.3420     0.3480     2.3860 c3         1 X21      -0.038433
     33 C24          7.1700     2.5090     2.8320 c3         1 X21      -0.038433
     34 C25          5.9390     0.3480     3.0690 c3         1 X21      -0.038433
     35 H           -0.3610     0.9970     0.2230 h1         1 X21       0.022700
     36 HA          -0.3610    -0.3050    -0.9750 h1         1 X21       0.022700
     37 HB          -0.3610    -0.6910     0.7520 h1         1 X21       0.022700
     38 H1           4.4010     0.0010     1.3940 h4         1 X21       0.028100
     39 H2           1.9210    -0.0070    -2.1240 h4         1 X21       0.151000
     40 HN3         10.8370    -0.0740    -2.8730 hn         1 X21       0.293800
     41 H5           3.8870     0.1500    -3.5100 ha         1 X21       0.131000
     42 H7           6.1960    -0.0080    -5.4610 h4         1 X21      -0.020900
     43 H11         13.5860    -0.7490    -6.6830 ha         1 X21       0.117000
     44 H14         10.5010     1.1090   -10.4220 h4         1 X21       0.003100
     45 H15         14.5550     0.7760   -11.5030 h5         1 X21       0.021100
     46 H16         14.6560     0.9150    -7.8040 h1         1 X21       0.025367
     47 H16A        14.6720    -0.7560    -8.3850 h1         1 X21       0.025367
     48 H16B        15.6440     0.4740    -9.2040 h1         1 X21       0.025367
     49 H17         10.1730     1.5180    -7.9670 ha         1 X21       0.119000
     50 H18          9.1690     1.2600    -5.7350 ha         1 X21       0.151000
     51 H19          8.9480    -0.0000    -1.3890 ha         1 X21       0.121000
     52 H23          8.1640    -0.7190     2.3240 hc         1 X21       0.024811
     53 H23A         8.9960     0.6530     1.5780 hc         1 X21       0.024811
     54 H23B         8.8070     0.5830     3.3350 hc         1 X21       0.024811
     55 H24          7.9880     3.0080     2.3260 hc         1 X21       0.024811
     56 H24A         7.3810     2.4560     3.8940 hc         1 X21       0.024811
     57 H24B         6.2540     3.0660     2.6740 hc         1 X21       0.024811
     58 H25          5.8410    -0.6610     2.6850 hc         1 X21       0.024811
     59 H25A         6.2250     0.3110     4.1130 hc         1 X21       0.024811
     60 H25B         4.9920     0.8640     2.9720 hc         1 X21       0.024811
     61 C16         14.7130     0.2850    -8.6840 c3         1 X21      -0.013400
     62 Cl          12.9190    -1.2780    -3.9680 cl         1 X21      -0.027400
@<TRIPOS>BOND
     1     1     2 1   
     2     1    35 1   
     3     1    36 1   
     4     1    37 1   
     5     2     5 1   
     6     2     7 1   
     7     3    30 1   
     8     3    31 1   
     9     4     5 2   
    10     4     9 1   
    11     4    38 1   
    12     6    30 2   
    13     7     9 2   
    14     7    39 1   
    15     8    17 ar  
    16     8    18 ar  
    17     9    11 1   
    18    10    18 1   
    19    10    19 1   
    20    10    40 1   
    21    11    13 2   
    22    11    16 1   
    23    12    24 1   
    24    12    25 2   
    25    13    15 1   
    26    13    41 1   
    27    14    23 1   
    28    14    25 1   
    29    14    61 1   
    30    15    17 ar  
    31    15    29 ar  
    32    16    29 1   
    33    16    30 1   
    34    17    42 1   
    35    18    28 ar  
    36    19    20 ar  
    37    19    27 ar  
    38    20    21 ar  
    39    20    62 1   
    40    21    22 ar  
    41    21    43 1   
    42    22    23 1   
    43    22    26 ar  
    44    23    24 2   
    45    24    44 1   
    46    25    45 1   
    47    26    27 ar  
    48    26    49 1   
    49    27    50 1   
    50    28    29 ar  
    51    28    51 1   
    52    31    32 1   
    53    31    33 1   
    54    31    34 1   
    55    32    52 1   
    56    32    53 1   
    57    32    54 1   
    58    33    55 1   
    59    33    56 1   
    60    33    57 1   
    61    34    58 1   
    62    34    59 1   
    63    34    60 1   
    64    46    61 1   
    65    47    61 1   
    66    48    61 1   
@<TRIPOS>SUBSTRUCTURE
     1 X21         1 TEMP              0 ****  ****    0 ROOT
