@<TRIPOS>MOLECULE
molecule
   62    66     1     0     0
SMALL
bcc


@<TRIPOS>ATOM
      1 C            0.0000     0.0000     0.0000 c3         1 X21       0.063600
      2 N            1.4640     0.0000     0.0000 na         1 X21       0.071400
      3 O            6.6140     1.1670     0.8770 os         1 X21      -0.413900
      4 C1           3.5330    -0.0000     0.7460 cc         1 X21       0.338200
      5 N1           2.2850     0.0000     1.1340 nd         1 X21      -0.503800
      6 O1           6.5980    -1.0500     0.8180 o          1 X21      -0.524000
      7 C2           2.2550    -0.0050    -1.0930 cd         1 X21      -0.081300
      8 N2           8.1010    -0.0060    -4.6240 nb         1 X21      -0.757000
      9 C3           3.5520    -0.0020    -0.6650 cc         1 X21      -0.273100
     10 N3          10.2510    -0.0030    -3.6810 nu         1 X21      -0.767300
     11 C4           4.7570    -0.0040    -1.5220 cc         1 X21       0.106400
     12 N4          12.4470     1.0180   -11.3580 nc         1 X21      -0.690000
     13 C5           4.7520    -0.0050    -2.8770 cd         1 X21      -0.171200
     14 N5          13.5870     0.5830    -9.5720 na         1 X21      -0.197900
     15 C6           6.1480    -0.0040    -3.3130 ca         1 X21      -0.255100
     16 N6           6.0640    -0.0010    -1.0650 n          1 X21      -0.232200
     17 C7           6.7850    -0.0060    -4.5520 ca         1 X21       0.504200
     18 C8           8.8660    -0.0040    -3.5390 ca         1 X21       0.701200
     19 C9          10.8240     0.1410    -4.9480 ca         1 X21       0.177600
     20 C10         12.0730    -0.4120    -5.2120 ca         1 X21      -0.014600
     21 C11         12.6390    -0.2710    -6.4610 ca         1 X21      -0.099000
     22 C12         11.9590     0.4250    -7.4610 ca         1 X21      -0.022000
     23 C13         12.2640     0.6900    -9.2080 cd         1 X21      -0.171600
     24 C14         11.5710     0.9620   -10.3470 cc         1 X21       0.326200
     25 C15         13.6510     0.7920   -10.9050 cd         1 X21       0.386400
     26 C17         10.7050     0.9790    -7.1920 ca         1 X21      -0.104000
     27 C18         10.1420     0.8310    -5.9430 ca         1 X21      -0.127000
     28 C19          8.3120    -0.0020    -2.2660 ca         1 X21      -0.321300
     29 C20          6.9300    -0.0020    -2.1370 ca         1 X21       0.091600
     30 C21          6.4320     0.0010     0.2320 c          1 X21       0.775100
     31 C22          7.0100     1.0940     2.2720 c3         1 X21       0.165800
     32 C23          8.3420     0.3480     2.3860 c3         1 X21      -0.113433
     33 C24          7.1700     2.5090     2.8320 c3         1 X21      -0.113433
     34 C25          5.9390     0.3480     3.0690 c3         1 X21      -0.113433
     35 H           -0.3610     0.9970     0.2230 h1         1 X21       0.057700
     36 HA          -0.3610    -0.3050    -0.9750 h1         1 X21       0.057700
     37 HB          -0.3610    -0.6910     0.7520 h1         1 X21       0.057700
     38 H1           4.4010     0.0010     1.3940 h4         1 X21       0.061100
     39 H2           1.9210    -0.0070    -2.1240 h4         1 X21       0.177000
     40 HN3         10.8370    -0.0740    -2.8730 hn         1 X21       0.464800
     41 H5           3.8870     0.1500    -3.5100 ha         1 X21       0.158000
     42 H7           6.1960    -0.0080    -5.4610 h4         1 X21       0.029100
     43 H11         13.5860    -0.7490    -6.6830 ha         1 X21       0.143000
     44 H14         10.5010     1.1090   -10.4220 h4         1 X21       0.044100
     45 H15         14.5550     0.7760   -11.5030 h5         1 X21       0.062100
     46 H16         14.6560     0.9150    -7.8040 h1         1 X21       0.054367
     47 H16A        14.6720    -0.7560    -8.3850 h1         1 X21       0.054367
     48 H16B        15.6440     0.4740    -9.2040 h1         1 X21       0.054367
     49 H17         10.1730     1.5180    -7.9670 ha         1 X21       0.146000
     50 H18          9.1690     1.2600    -5.7350 ha         1 X21       0.176000
     51 H19          8.9480    -0.0000    -1.3890 ha         1 X21       0.141000
     52 H23          8.1640    -0.7190     2.3240 hc         1 X21       0.055144
     53 H23A         8.9960     0.6530     1.5780 hc         1 X21       0.055144
     54 H23B         8.8070     0.5830     3.3350 hc         1 X21       0.055144
     55 H24          7.9880     3.0080     2.3260 hc         1 X21       0.055144
     56 H24A         7.3810     2.4560     3.8940 hc         1 X21       0.055144
     57 H24B         6.2540     3.0660     2.6740 hc         1 X21       0.055144
     58 H25          5.8410    -0.6610     2.6850 hc         1 X21       0.055144
     59 H25A         6.2250     0.3110     4.1130 hc         1 X21       0.055144
     60 H25B         4.9920     0.8640     2.9720 hc         1 X21       0.055144
     61 C16         14.7130     0.2850    -8.6840 c3         1 X21       0.031600
     62 Cl          12.9190    -1.2780    -3.9680 cl         1 X21      -0.109400
@<TRIPOS>BOND
     1     1     2 1
     2     2     5 1
     3     2     7 1
     4     3    30 1
     5     3    31 1
     6    62    20 1
     7     4     5 2
     8     4     9 1
     9     6    30 2
    10     7     9 2
    11     8    17 ar
    12     8    18 ar
    13     9    11 1
    14    10    18 1
    15    10    19 1
    16    11    13 2
    17    11    16 1
    18    12    24 1
    19    12    25 2
    20    13    15 1
    21    14    23 1
    22    14    25 1
    23    14    61 1
    24    15    17 ar
    25    15    29 ar
    26    16    29 1
    27    16    30 1
    28    18    28 ar
    29    19    20 ar
    30    19    27 ar
    31    20    21 ar
    32    21    22 ar
    33    22    23 1
    34    22    26 ar
    35    23    24 2
    36    26    27 ar
    37    28    29 ar
    38    31    32 1
    39    31    33 1
    40    31    34 1
    41     1    35 1
    42     1    36 1
    43     1    37 1
    44     4    38 1
    45     7    39 1
    46    10    40 1
    47    13    41 1
    48    17    42 1
    49    21    43 1
    50    24    44 1
    51    25    45 1
    52    61    46 1
    53    61    47 1
    54    61    48 1
    55    26    49 1
    56    27    50 1
    57    28    51 1
    58    32    52 1
    59    32    53 1
    60    32    54 1
    61    33    55 1
    62    33    56 1
    63    33    57 1
    64    34    58 1
    65    34    59 1
    66    34    60 1
@<TRIPOS>SUBSTRUCTURE
     1 X21         1 TEMP              0 ****  ****    0 ROOT
