@<TRIPOS>MOLECULE
molecule
   73    76     1     0     0
SMALL
bcc


@<TRIPOS>ATOM
      1 CAA          0.0000     0.0000     0.0000 c3         1 X22      -0.115100
      2 CB           1.5300     0.0000     0.0000 c3         1 X22      -0.107400
      3 CA           2.0400     0.0000     1.4420 c3         1 X22       0.025500
      4 N            1.6510     1.2550     2.0980 nz         1 X22      -0.794600
      5 C            3.5410    -0.1250     1.4440 c          1 X22       0.643100
      6 O            4.2310     0.8610     1.5970 o          1 X22      -0.585100
      7 NAX          4.1170    -1.3320     1.2770 ns         1 X22      -0.528900
      8 CBI          5.5610    -1.4510     1.2790 c3         1 X22       0.038700
      9 CBA          6.1430    -1.1750    -0.0910 c          1 X22       0.722500
     10 OAE          6.7820    -0.1750    -0.2830 o          1 X22      -0.584500
     11 NBJ          5.9370    -2.0610    -1.0950 n          1 X22      -0.489800
     12 CBE          6.0340    -2.8350     1.7470 c3         1 X22      -0.085700
     13 CAR          6.2670    -2.8030     3.2600 c3         1 X22       0.146400
     14 OAF          6.8190    -4.0520     3.6840 oh         1 X22      -0.603800
     15 CAS          4.9790    -3.8850     1.4060 c3         1 X22      -0.096400
     16 CAT          4.5400    -3.8280    -0.0490 c3         1 X22      -0.109400
     17 CBF          5.7180    -3.4970    -0.9580 c3         1 X22       0.104700
     18 CAU          5.4230    -4.0220    -2.3760 c3         1 X22      -0.100400
     19 CAV          6.1940    -3.0170    -3.2580 c3         1 X22      -0.088400
     20 CBG          5.9390    -1.6940    -2.5180 c3         1 X22       0.027700
     21 CAZ          4.6090    -1.1140    -2.9160 c          1 X22       0.665100
     22 OAD          3.7230    -1.0100    -2.0950 o          1 X22      -0.651100
     23 NAW          4.4010    -0.7140    -4.1860 ns         1 X22      -0.570900
     24 CBH          3.1050    -0.1500    -4.5740 c3         1 X22       0.215300
     25 CBC          3.0840     1.3240    -4.2570 ca         1 X22      -0.099800
     26 CAO          1.9410     1.9020    -3.7360 ca         1 X22      -0.117500
     27 CAK          1.9210     3.2530    -3.4450 ca         1 X22      -0.122250
     28 CAH          3.0440     4.0260    -3.6750 ca         1 X22      -0.117500
     29 CAL          4.1870     3.4480    -4.1950 ca         1 X22      -0.122250
     30 CAP          4.2080     2.0960    -4.4810 ca         1 X22      -0.117500
     31 CBB          2.8940    -0.3480    -6.0520 ca         1 X22      -0.099800
     32 CAM          1.6450    -0.7010    -6.5310 ca         1 X22      -0.117500
     33 CAI          1.4500    -0.8830    -7.8860 ca         1 X22      -0.122250
     34 CAG          2.5040    -0.7130    -8.7650 ca         1 X22      -0.117500
     35 CAJ          3.7520    -0.3600    -8.2870 ca         1 X22      -0.122250
     36 CAN          3.9460    -0.1730    -6.9320 ca         1 X22      -0.117500
     37 HAA         -0.3610    -0.5990     0.8270 hc         1 X22       0.051700
     38 HAAA        -0.3610    -0.4170    -0.9330 hc         1 X22       0.051700
     39 HAAB        -0.3610     1.0160     0.1050 hc         1 X22       0.051700
     40 HB           1.8900    -0.8850    -0.5100 hc         1 X22       0.110200
     41 HBA          1.8910     0.8840    -0.5110 hc         1 X22       0.110200
     42 HA           1.6070    -0.8360     1.9780 hx         1 X22       0.112700
     43 HN           1.7400     2.0120     1.4500 hn         1 X22       0.461467
     44 HNA          0.7020     1.1900     2.4070 hn         1 X22       0.461467
     45 HNAX         3.5480    -2.1510     1.1990 hn         1 X22       0.342500
     46 HBI          5.9610    -0.7140     1.9650 h1         1 X22       0.108700
     47 HBE          6.9600    -3.0840     1.2430 hc         1 X22       0.093700
     48 HAR          6.9570    -2.0040     3.5030 h1         1 X22       0.027200
     49 HARA         5.3250    -2.6340     3.7670 h1         1 X22       0.027200
     50 HOAF         7.3070    -3.9260     4.4810 ho         1 X22       0.417000
     51 HAS          4.1130    -3.7240     2.0370 hc         1 X22       0.056700
     52 HASA         5.3880    -4.8670     1.6080 hc         1 X22       0.056700
     53 HAT          4.2430    -4.8370    -0.3070 hc         1 X22       0.067700
     54 HATA         3.8650    -2.9840    -0.1210 hc         1 X22       0.067700
     55 HBF          6.6150    -3.9670    -0.5750 h1         1 X22       0.064700
     56 HAU          5.8150    -5.0240    -2.5030 hc         1 X22       0.066700
     57 HAUA         4.3610    -3.9840    -2.5880 hc         1 X22       0.066700
     58 HAV          7.2480    -3.2440    -3.1580 hc         1 X22       0.078700
     59 HAVA         5.6760    -2.9600    -4.2080 hc         1 X22       0.078700
     60 HBG          6.7380    -0.9920    -2.7220 h1         1 X22       0.100700
     61 HNAW         5.1240    -0.8230    -4.8700 hn         1 X22       0.326500
     62 HBH          2.3150    -0.6490    -4.0250 h1         1 X22       0.078700
     63 HAO          1.0610     1.2960    -3.5560 ha         1 X22       0.125750
     64 HAK          1.0250     3.7060    -3.0380 ha         1 X22       0.135750
     65 HAH          3.0270     5.0850    -3.4490 ha         1 X22       0.138000
     66 HAL          5.0670     4.0530    -4.3730 ha         1 X22       0.135750
     67 HAP          5.1030     1.6430    -4.8890 ha         1 X22       0.125750
     68 HAM          0.8190    -0.8340    -5.8420 ha         1 X22       0.125750
     69 HAI          0.4710    -1.1590    -8.2610 ha         1 X22       0.135750
     70 HAG          2.3510    -0.8570    -9.8280 ha         1 X22       0.138000
     71 HAJ          4.5770    -0.2250    -8.9760 ha         1 X22       0.135750
     72 HAN          4.9240     0.1030    -6.5580 ha         1 X22       0.125750
     73 HN3          2.2360     1.4090     2.8960 hn         1 X22       0.461467
@<TRIPOS>BOND
     1     1     2 1
     2     2     3 1
     3     3     4 1
     4     3     5 1
     5     5     6 2
     6     5     7 1
     7     7     8 1
     8     8     9 1
     9     8    12 1
    10     9    10 2
    11     9    11 1
    12    11    17 1
    13    11    20 1
    14    12    13 1
    15    12    15 1
    16    13    14 1
    17    15    16 1
    18    16    17 1
    19    17    18 1
    20    18    19 1
    21    19    20 1
    22    20    21 1
    23    21    22 2
    24    21    23 1
    25    23    24 1
    26    24    25 1
    27    24    31 1
    28    25    26 ar
    29    25    30 ar
    30    26    27 ar
    31    27    28 ar
    32    28    29 ar
    33    29    30 ar
    34    31    32 ar
    35    31    36 ar
    36    32    33 ar
    37    33    34 ar
    38    34    35 ar
    39    35    36 ar
    40     1    37 1
    41     1    38 1
    42     1    39 1
    43     2    40 1
    44     2    41 1
    45     3    42 1
    46     4    43 1
    47     4    44 1
    48     7    45 1
    49     8    46 1
    50    12    47 1
    51    13    48 1
    52    13    49 1
    53    14    50 1
    54    15    51 1
    55    15    52 1
    56    16    53 1
    57    16    54 1
    58    17    55 1
    59    18    56 1
    60    18    57 1
    61    19    58 1
    62    19    59 1
    63    20    60 1
    64    23    61 1
    65    24    62 1
    66    26    63 1
    67    27    64 1
    68    28    65 1
    69    29    66 1
    70    30    67 1
    71    32    68 1
    72    33    69 1
    73    34    70 1
    74    35    71 1
    75    36    72 1
    76    73     4 1
@<TRIPOS>SUBSTRUCTURE
     1 X22         1 TEMP              0 ****  ****    0 ROOT
