@<TRIPOS>MOLECULE
X22
   73    76     1     0     0
SMALL
bcc


@<TRIPOS>ATOM
      1 CAA          0.0000     0.0000     0.0000 c3         1 X22      -0.012100
      2 CB           1.5300     0.0000     0.0000 c3         1 X22      -0.046400
      3 CA           2.0400     0.0000     1.4420 c3         1 X22      -0.155500
      4 N            1.6510     1.2550     2.0980 nz         1 X22       0.092400
      5 C            3.5410    -0.1250     1.4440 c          1 X22       0.552100
      6 O            4.2310     0.8610     1.5970 o          1 X22      -0.630100
      7 NAX          4.1170    -1.3320     1.2770 ns         1 X22      -0.112900
      8 CBI          5.5610    -1.4510     1.2790 c3         1 X22      -0.076300
      9 CBA          6.1430    -1.1750    -0.0910 c          1 X22       0.648500
     10 OAE          6.7820    -0.1750    -0.2830 o          1 X22      -0.619500
     11 NBJ          5.9370    -2.0610    -1.0950 n          1 X22      -0.150800
     12 CBE          6.0340    -2.8350     1.7470 c3         1 X22      -0.073700
     13 CAR          6.2670    -2.8030     3.2600 c3         1 X22       0.232400
     14 OAF          6.8190    -4.0520     3.6840 oh         1 X22      -0.586800
     15 CAS          4.9790    -3.8850     1.4060 c3         1 X22      -0.047400
     16 CAT          4.5400    -3.8280    -0.0490 c3         1 X22      -0.066400
     17 CBF          5.7180    -3.4970    -0.9580 c3         1 X22       0.020700
     18 CAU          5.4230    -4.0220    -2.3760 c3         1 X22      -0.043400
     19 CAV          6.1940    -3.0170    -3.2580 c3         1 X22      -0.028400
     20 CBG          5.9390    -1.6940    -2.5180 c3         1 X22      -0.056300
     21 CAZ          4.6090    -1.1140    -2.9160 c          1 X22       0.587100
     22 OAD          3.7230    -1.0100    -2.0950 o          1 X22      -0.705100
     23 NAW          4.4010    -0.7140    -4.1860 ns         1 X22      -0.174900
     24 CBH          3.1050    -0.1500    -4.5740 c3         1 X22       0.142300
     25 CBC          3.0840     1.3240    -4.2570 ca         1 X22      -0.112800
     26 CAO          1.9410     1.9020    -3.7360 ca         1 X22      -0.093000
     27 CAK          1.9210     3.2530    -3.4450 ca         1 X22      -0.092500
     28 CAH          3.0440     4.0260    -3.6750 ca         1 X22      -0.088000
     29 CAL          4.1870     3.4480    -4.1950 ca         1 X22      -0.092500
     30 CAP          4.2080     2.0960    -4.4810 ca         1 X22      -0.093000
     31 CBB          2.8940    -0.3480    -6.0520 ca         1 X22      -0.112800
     32 CAM          1.6450    -0.7010    -6.5310 ca         1 X22      -0.093000
     33 CAI          1.4500    -0.8830    -7.8860 ca         1 X22      -0.092500
     34 CAG          2.5040    -0.7130    -8.7650 ca         1 X22      -0.088000
     35 CAJ          3.7520    -0.3600    -8.2870 ca         1 X22      -0.092500
     36 CAN          3.9460    -0.1730    -6.9320 ca         1 X22      -0.093000
     37 HAA         -0.3610    -0.5990     0.8270 hc         1 X22       0.016700
     38 HAAA        -0.3610    -0.4170    -0.9330 hc         1 X22       0.016700
     39 HAAB        -0.3610     1.0160     0.1050 hc         1 X22       0.016700
     40 HB           1.8900    -0.8850    -0.5100 hc         1 X22       0.075700
     41 HBA          1.8910     0.8840    -0.5110 hc         1 X22       0.075700
     42 HA           1.6070    -0.8360     1.9780 hx         1 X22       0.087700
     43 HN           1.7400     2.0120     1.4500 hn         1 X22       0.228467
     44 HNA          0.7020     1.1900     2.4070 hn         1 X22       0.228467
     45 HNAX         3.5480    -2.1510     1.1990 hn         1 X22       0.208500
     46 HBI          5.9610    -0.7140     1.9650 h1         1 X22       0.085700
     47 HBE          6.9600    -3.0840     1.2430 hc         1 X22       0.066700
     48 HAR          6.9570    -2.0040     3.5030 h1         1 X22      -0.009800
     49 HARA         5.3250    -2.6340     3.7670 h1         1 X22      -0.009800
     50 HOAF         7.3070    -3.9260     4.4810 ho         1 X22       0.404000
     51 HAS          4.1130    -3.7240     2.0370 hc         1 X22       0.030700
     52 HASA         5.3880    -4.8670     1.6080 hc         1 X22       0.030700
     53 HAT          4.2430    -4.8370    -0.3070 hc         1 X22       0.043700
     54 HATA         3.8650    -2.9840    -0.1210 hc         1 X22       0.043700
     55 HBF          6.6150    -3.9670    -0.5750 h1         1 X22       0.043700
     56 HAU          5.8150    -5.0240    -2.5030 hc         1 X22       0.036700
     57 HAUA         4.3610    -3.9840    -2.5880 hc         1 X22       0.036700
     58 HAV          7.2480    -3.2440    -3.1580 hc         1 X22       0.045200
     59 HAVA         5.6760    -2.9600    -4.2080 hc         1 X22       0.045200
     60 HBG          6.7380    -0.9920    -2.7220 h1         1 X22       0.070700
     61 HNAW         5.1240    -0.8230    -4.8700 hn         1 X22       0.192500
     62 HBH          2.3150    -0.6490    -4.0250 h1         1 X22       0.052700
     63 HAO          1.0610     1.2960    -3.5560 ha         1 X22       0.102250
     64 HAK          1.0250     3.7060    -3.0380 ha         1 X22       0.107500
     65 HAH          3.0270     5.0850    -3.4490 ha         1 X22       0.109500
     66 HAL          5.0670     4.0530    -4.3730 ha         1 X22       0.107500
     67 HAP          5.1030     1.6430    -4.8890 ha         1 X22       0.102250
     68 HAM          0.8190    -0.8340    -5.8420 ha         1 X22       0.102250
     69 HAI          0.4710    -1.1590    -8.2610 ha         1 X22       0.107500
     70 HAG          2.3510    -0.8570    -9.8280 ha         1 X22       0.109500
     71 HAJ          4.5770    -0.2250    -8.9760 ha         1 X22       0.107500
     72 HAN          4.9240     0.1030    -6.5580 ha         1 X22       0.102250
     73 HN3          2.2360     1.4090     2.8960 hn         1 X22       0.228467
@<TRIPOS>BOND
     1     1     2 1   
     2     1    37 1   
     3     1    38 1   
     4     1    39 1   
     5     2     3 1   
     6     2    40 1   
     7     2    41 1   
     8     3     4 1   
     9     3     5 1   
    10     3    42 1   
    11     4    43 1   
    12     4    44 1   
    13     4    73 1   
    14     5     6 2   
    15     5     7 1   
    16     7     8 1   
    17     7    45 1   
    18     8     9 1   
    19     8    12 1   
    20     8    46 1   
    21     9    10 2   
    22     9    11 1   
    23    11    17 1   
    24    11    20 1   
    25    12    13 1   
    26    12    15 1   
    27    12    47 1   
    28    13    14 1   
    29    13    48 1   
    30    13    49 1   
    31    14    50 1   
    32    15    16 1   
    33    15    51 1   
    34    15    52 1   
    35    16    17 1   
    36    16    53 1   
    37    16    54 1   
    38    17    18 1   
    39    17    55 1   
    40    18    19 1   
    41    18    56 1   
    42    18    57 1   
    43    19    20 1   
    44    19    58 1   
    45    19    59 1   
    46    20    21 1   
    47    20    60 1   
    48    21    22 2   
    49    21    23 1   
    50    23    24 1   
    51    23    61 1   
    52    24    25 1   
    53    24    31 1   
    54    24    62 1   
    55    25    26 ar  
    56    25    30 ar  
    57    26    27 ar  
    58    26    63 1   
    59    27    28 ar  
    60    27    64 1   
    61    28    29 ar  
    62    28    65 1   
    63    29    30 ar  
    64    29    66 1   
    65    30    67 1   
    66    31    32 ar  
    67    31    36 ar  
    68    32    33 ar  
    69    32    68 1   
    70    33    34 ar  
    71    33    69 1   
    72    34    35 ar  
    73    34    70 1   
    74    35    36 ar  
    75    35    71 1   
    76    36    72 1   
@<TRIPOS>SUBSTRUCTURE
     1 X22         1 TEMP              0 ****  ****    0 ROOT
