@<TRIPOS>MOLECULE
X23
   75    78     1     0     0
SMALL
bcc


@<TRIPOS>ATOM
      1 CAA          0.0000     0.0000     0.0000 c3         1 X23      -0.012100
      2 CB           1.5300     0.0000     0.0000 c3         1 X23      -0.044400
      3 CA           2.0390     0.0000     1.4420 c3         1 X23      -0.146500
      4 N            1.6510     1.2550     2.1000 nz         1 X23       0.061400
      5 C            3.5410    -0.1250     1.4450 c          1 X23       0.564100
      6 O            4.2310     0.8620     1.5980 o          1 X23      -0.601100
      7 NAX          4.1180    -1.3300     1.2770 ns         1 X23      -0.147900
      8 CBH          5.5630    -1.4500     1.2790 c3         1 X23      -0.059300
      9 CBA          6.1430    -1.1720    -0.0900 c          1 X23       0.631500
     10 OAF          6.7830    -0.1720    -0.2810 o          1 X23      -0.585500
     11 NBJ          5.9380    -2.0570    -1.0950 n          1 X23      -0.143800
     12 CBE          6.0360    -2.8340     1.7460 c3         1 X23      -0.080700
     13 CAR          6.2690    -2.8030     3.2590 c3         1 X23      -0.046200
     14 NAB          6.8350    -4.0870     3.6940 nz         1 X23       0.084400
     15 CAS          4.9810    -3.8830     1.4040 c3         1 X23      -0.058400
     16 CAT          4.5430    -3.8260    -0.0510 c3         1 X23      -0.051400
     17 CBF          5.7200    -3.4930    -0.9590 c3         1 X23       0.016700
     18 CAU          5.4250    -4.0180    -2.3780 c3         1 X23      -0.039400
     19 CAV          6.1960    -3.0120    -3.2590 c3         1 X23      -0.019400
     20 CBI          5.9410    -1.6900    -2.5180 c3         1 X23      -0.058300
     21 CAZ          4.6100    -1.1110    -2.9160 c          1 X23       0.582100
     22 OAE          3.7230    -1.0070    -2.0950 o          1 X23      -0.722100
     23 NAW          4.4020    -0.7080    -4.1860 ns         1 X23      -0.149900
     24 CBG          3.1070    -0.1450    -4.5730 c3         1 X23       0.144300
     25 CBC          3.2880     0.7570    -5.7680 ca         1 X23      -0.120800
     26 CAO          2.5920     1.9480    -5.8470 ca         1 X23      -0.095250
     27 CAK          2.7570     2.7740    -6.9420 ca         1 X23      -0.087000
     28 CAH          3.6200     2.4090    -7.9590 ca         1 X23      -0.080500
     29 CAL          4.3170     1.2170    -7.8800 ca         1 X23      -0.087000
     30 CAP          4.1550     0.3930    -6.7820 ca         1 X23      -0.095250
     31 CBB          2.1580    -1.2620    -4.9250 ca         1 X23      -0.120800
     32 CAM          0.8340    -1.1930    -4.5370 ca         1 X23      -0.095250
     33 CAI         -0.0360    -2.2170    -4.8590 ca         1 X23      -0.087000
     34 CAG          0.4190    -3.3100    -5.5720 ca         1 X23      -0.080500
     35 CAJ          1.7430    -3.3790    -5.9620 ca         1 X23      -0.087000
     36 CAN          2.6120    -2.3530    -5.6430 ca         1 X23      -0.095250
     37 HAA         -0.3610     1.0200    -0.0450 hc         1 X23       0.023033
     38 HAAA        -0.3610    -0.4710     0.9060 hc         1 X23       0.023033
     39 HAAB        -0.3610    -0.5490    -0.8610 hc         1 X23       0.023033
     40 HB           1.8910     0.8850    -0.5110 hc         1 X23       0.074200
     41 HBA          1.8910    -0.8850    -0.5110 hc         1 X23       0.074200
     42 HA           1.6070    -0.8370     1.9780 hx         1 X23       0.084700
     43 HN           1.1410     1.8260     1.4550 hn         1 X23       0.239133
     44 HNA          1.0750     1.0520     2.8930 hn         1 X23       0.239133
     45 HNAX         3.5490    -2.1480     1.1830 hn         1 X23       0.209500
     46 HBH          5.9620    -0.7130     1.9650 h1         1 X23       0.085700
     47 HBE          6.9630    -3.0820     1.2420 hc         1 X23       0.075700
     48 HAR          6.9570    -2.0030     3.5030 hx         1 X23       0.086700
     49 HARA         5.3260    -2.6350     3.7660 hx         1 X23       0.086700
     50 HNAB         7.5140    -4.3950     3.0260 hn         1 X23       0.230467
     51 HNAA         7.2740    -3.9730     4.5860 hn         1 X23       0.230467
     52 HAS          5.3900    -4.8660     1.6050 hc         1 X23       0.016700
     53 HASA         4.1150    -3.7240     2.0340 hc         1 X23       0.016700
     54 HAT          3.8670    -2.9820    -0.1230 hc         1 X23       0.060700
     55 HATA         4.2460    -4.8350    -0.3100 hc         1 X23       0.060700
     56 HBF          6.6180    -3.9630    -0.5770 h1         1 X23       0.022700
     57 HAU          5.8160    -5.0200    -2.5070 hc         1 X23       0.044700
     58 HAUA         4.3640    -3.9790    -2.5900 hc         1 X23       0.044700
     59 HAV          7.2510    -3.2390    -3.1590 hc         1 X23       0.051200
     60 HAVA         5.6790    -2.9540    -4.2090 hc         1 X23       0.051200
     61 HBI          6.7400    -0.9870    -2.7210 h1         1 X23       0.078700
     62 HAO          1.9160     2.2340    -5.0510 ha         1 X23       0.098750
     63 HAK          2.2120     3.7070    -7.0040 ha         1 X23       0.111250
     64 HAH          3.7490     3.0560    -8.8190 ha         1 X23       0.114500
     65 HAL          4.9950     0.9320    -8.6750 ha         1 X23       0.111250
     66 HAP          4.7000    -0.5410    -6.7190 ha         1 X23       0.098750
     67 HAM          0.4780    -0.3360    -3.9780 ha         1 X23       0.098750
     68 HAI         -1.0740    -2.1630    -4.5540 ha         1 X23       0.111250
     69 HAG         -0.2620    -4.1140    -5.8240 ha         1 X23       0.114500
     70 HAJ          2.0980    -4.2350    -6.5220 ha         1 X23       0.111250
     71 HAN          3.6500    -2.4070    -5.9490 ha         1 X23       0.098750
     72 H36          5.1350    -0.7920    -4.8630 hn         1 X23       0.194500
     73 H37          2.7000     0.4270    -3.7480 h1         1 X23       0.048700
     74 HN3          2.4720     1.7440     2.3970 hn         1 X23       0.239133
     75 HAB3         6.1000    -4.7570     3.8000 hn         1 X23       0.230467
@<TRIPOS>BOND
     1     1     2 1   
     2     1    37 1   
     3     1    38 1   
     4     1    39 1   
     5     2     3 1   
     6     2    40 1   
     7     2    41 1   
     8     3     4 1   
     9     3     5 1   
    10     3    42 1   
    11     4    43 1   
    12     4    44 1   
    13     4    74 1   
    14     5     6 2   
    15     5     7 1   
    16     7     8 1   
    17     7    45 1   
    18     8     9 1   
    19     8    12 1   
    20     8    46 1   
    21     9    10 2   
    22     9    11 1   
    23    11    17 1   
    24    11    20 1   
    25    12    13 1   
    26    12    15 1   
    27    12    47 1   
    28    13    14 1   
    29    13    48 1   
    30    13    49 1   
    31    14    50 1   
    32    14    51 1   
    33    14    75 1   
    34    15    16 1   
    35    15    52 1   
    36    15    53 1   
    37    16    17 1   
    38    16    54 1   
    39    16    55 1   
    40    17    18 1   
    41    17    56 1   
    42    18    19 1   
    43    18    57 1   
    44    18    58 1   
    45    19    20 1   
    46    19    59 1   
    47    19    60 1   
    48    20    21 1   
    49    20    61 1   
    50    21    22 2   
    51    21    23 1   
    52    23    24 1   
    53    23    72 1   
    54    24    25 1   
    55    24    31 1   
    56    24    73 1   
    57    25    26 ar  
    58    25    30 ar  
    59    26    27 ar  
    60    26    62 1   
    61    27    28 ar  
    62    27    63 1   
    63    28    29 ar  
    64    28    64 1   
    65    29    30 ar  
    66    29    65 1   
    67    30    66 1   
    68    31    32 ar  
    69    31    36 ar  
    70    32    33 ar  
    71    32    67 1   
    72    33    34 ar  
    73    33    68 1   
    74    34    35 ar  
    75    34    69 1   
    76    35    36 ar  
    77    35    70 1   
    78    36    71 1   
@<TRIPOS>SUBSTRUCTURE
     1 X23         1 TEMP              0 ****  ****    0 ROOT
