@<TRIPOS>MOLECULE
X24
   76    79     1     0     0
SMALL
bcc


@<TRIPOS>ATOM
      1 C1           0.0000     0.0000     0.0000 c3         1 X24      -0.028100
      2 C2           1.5300     0.0000     0.0000 c3         1 X24       0.195800
      3 C3           2.0400     0.0000     1.4420 c3         1 X24      -0.028100
      4 C4           2.0390    -1.2500    -0.7220 c3         1 X24      -0.028100
      5 O5           2.0130     1.1850    -0.6850 os         1 X24      -0.421900
      6 C6           1.6520     2.3780    -0.1730 c          1 X24       0.684100
      7 O7           0.9510     2.4250     0.8180 o          1 X24      -0.658000
      8 N8           2.0670     3.5170    -0.7610 ns         1 X24      -0.189900
      9 C9           1.6730     4.8140    -0.2050 c3         1 X24       0.067000
     10 C10          2.2740     5.9360    -1.0540 c3         1 X24      -0.068700
     11 C11          1.7630     7.2870    -0.5480 c3         1 X24      -0.020900
     12 C12          2.3620     8.4090    -1.3980 c3         1 X24      -0.020400
     13 C13          3.8880     8.3690    -1.2920 c3         1 X24      -0.067700
     14 C14          4.4880     9.4920    -2.1400 c3         1 X24       0.050000
     15 N15          5.9390     9.5290    -1.9460 ns         1 X24      -0.191900
     16 C16          6.6830    10.4440    -2.5980 c          1 X24       0.593700
     17 O17          6.1510    11.2380    -3.3480 o          1 X24      -0.631100
     18 C18          8.1490    10.4810    -2.4010 ca         1 X24      -0.084600
     19 C19          8.7730     9.6690    -1.4660 ca         1 X24      -0.202300
     20 C20         10.1660     9.7370    -1.3130 cp         1 X24       0.376800
     21 N21         10.9130    10.5520    -2.0280 nb         1 X24      -0.515000
     22 C22         10.3970    11.3680    -2.9480 ca         1 X24       0.348600
     23 C23         11.2200    12.2290    -3.6990 ca         1 X24      -0.145300
     24 C24         10.6660    13.0520    -4.6290 ca         1 X24      -0.078000
     25 C25          9.2910    13.0580    -4.8570 ca         1 X24      -0.068000
     26 C26          8.4620    12.2380    -4.1490 ca         1 X24      -0.104000
     27 C27          9.0000    11.3740    -3.1880 ca         1 X24      -0.085300
     28 C28         10.8200     8.8630    -0.3100 cp         1 X24      -0.066500
     29 C29         12.2030     8.9100    -0.1350 ca         1 X24      -0.078000
     30 C30         12.8060     8.0930     0.7990 ca         1 X24      -0.065500
     31 C31         12.0410     7.2290     1.5630 ca         1 X24      -0.228300
     32 C32         12.7050     6.3400     2.5830 c3         1 X24       0.041100
     33 N33         12.7670     7.0370     3.8740 nz         1 X24       0.072400
     34 C34         10.6680     7.1790     1.3950 ca         1 X24      -0.065500
     35 C35         10.0540     7.9950     0.4670 ca         1 X24      -0.078000
     36 C36          4.3990     7.0190    -1.7970 c3         1 X24      -0.020400
     37 C37          3.8000     5.8960    -0.9480 c3         1 X24      -0.020900
     38 H11C        -0.3610     0.4140    -0.9330 hc         1 X24       0.019144
     39 H12C        -0.3610    -1.0160     0.1080 hc         1 X24       0.019144
     40 H13C        -0.3610     0.6010     0.8260 hc         1 X24       0.019144
     41 H31C         1.3810     0.6000     2.0580 hc         1 X24       0.019144
     42 H32C         3.0400     0.4150     1.4720 hc         1 X24       0.019144
     43 H33C         2.0590    -1.0160     1.8180 hc         1 X24       0.019144
     44 H41C         3.1220    -1.2500    -0.7230 hc         1 X24       0.019144
     45 H42C         1.6780    -2.1340    -0.2110 hc         1 X24       0.019144
     46 H43C         1.6780    -1.2490    -1.7430 hc         1 X24       0.019144
     47 H8           2.6060     3.4770    -1.6040 hn         1 X24       0.178500
     48 H91C         2.0370     4.8960     0.8120 h1         1 X24       0.029200
     49 H92C         0.5930     4.8960    -0.2100 h1         1 X24       0.029200
     50 H10          1.9830     5.8070    -2.0900 hc         1 X24       0.037700
     51 H111         2.0600     7.4200     0.4850 hc         1 X24       0.019950
     52 H112         0.6830     7.3150    -0.6260 hc         1 X24       0.019950
     53 H371         4.0920     6.0320     0.0870 hc         1 X24       0.019950
     54 H372         4.1610     4.9410    -1.3080 hc         1 X24       0.019950
     55 H121         2.0010     9.3650    -1.0390 hc         1 X24       0.019950
     56 H122         2.0700     8.2730    -2.4320 hc         1 X24       0.019950
     57 H13          4.1790     8.4990    -0.2560 hc         1 X24       0.027700
     58 H141         4.2680     9.3110    -3.1850 h1         1 X24       0.035700
     59 H142         4.0590    10.4400    -1.8400 h1         1 X24       0.035700
     60 H361         4.1020     6.8860    -2.8300 hc         1 X24       0.019950
     61 H362         5.4790     6.9910    -1.7190 hc         1 X24       0.019950
     62 H15          6.3730     8.9030    -1.2960 hn         1 X24       0.175500
     63 H19          8.1890     8.9860    -0.8600 ha         1 X24       0.115000
     64 H23         12.2910    12.2370    -3.5350 ha         1 X24       0.118000
     65 H24         11.3040    13.7120    -5.2040 ha         1 X24       0.111000
     66 H25          8.8760    13.7230    -5.6040 ha         1 X24       0.114000
     67 H26          7.3950    12.2510    -4.3340 ha         1 X24       0.176000
     68 H29         12.8020     9.5860    -0.7330 ha         1 X24       0.137000
     69 H35          8.9800     7.9540     0.3360 ha         1 X24       0.137000
     70 H30         13.8800     8.1290     0.9360 ha         1 X24       0.106000
     71 H321        12.1330     5.4270     2.6930 hx         1 X24       0.080700
     72 H322        13.7090     6.1000     2.2530 hx         1 X24       0.080700
     73 H34         10.0740     6.5020     1.9970 ha         1 X24       0.106000
     74 H331        11.8400     7.2550     4.1800 hn         1 X24       0.222133
     75 H332        13.2920     7.8830     3.7710 hn         1 X24       0.222133
     76 H333        13.2130     6.4480     4.5500 hn         1 X24       0.222133
@<TRIPOS>BOND
     1     1     2 1   
     2     1    38 1   
     3     1    39 1   
     4     1    40 1   
     5     2     3 1   
     6     2     4 1   
     7     2     5 1   
     8     3    41 1   
     9     3    42 1   
    10     3    43 1   
    11     4    44 1   
    12     4    45 1   
    13     4    46 1   
    14     5     6 1   
    15     6     7 2   
    16     6     8 1   
    17     8     9 1   
    18     8    47 1   
    19     9    10 1   
    20     9    48 1   
    21     9    49 1   
    22    10    11 1   
    23    10    37 1   
    24    10    50 1   
    25    11    12 1   
    26    11    51 1   
    27    11    52 1   
    28    12    13 1   
    29    12    55 1   
    30    12    56 1   
    31    13    14 1   
    32    13    36 1   
    33    13    57 1   
    34    14    15 1   
    35    14    58 1   
    36    14    59 1   
    37    15    16 1   
    38    15    62 1   
    39    16    17 2   
    40    16    18 1   
    41    18    19 ar  
    42    18    27 ar  
    43    19    20 ar  
    44    19    63 1   
    45    20    21 ar  
    46    20    28 1   
    47    21    22 ar  
    48    22    23 ar  
    49    22    27 ar  
    50    23    24 ar  
    51    23    64 1   
    52    24    25 ar  
    53    24    65 1   
    54    25    26 ar  
    55    25    66 1   
    56    26    27 ar  
    57    26    67 1   
    58    28    29 ar  
    59    28    35 ar  
    60    29    30 ar  
    61    29    68 1   
    62    30    31 ar  
    63    30    70 1   
    64    31    32 1   
    65    31    34 ar  
    66    32    33 1   
    67    32    71 1   
    68    32    72 1   
    69    33    74 1   
    70    33    75 1   
    71    33    76 1   
    72    34    35 ar  
    73    34    73 1   
    74    35    69 1   
    75    36    37 1   
    76    36    60 1   
    77    36    61 1   
    78    37    53 1   
    79    37    54 1   
@<TRIPOS>SUBSTRUCTURE
     1 X24         1 TEMP              0 ****  ****    0 ROOT
