@<TRIPOS>MOLECULE
molecule
   76    79     1     0     0
SMALL
bcc


@<TRIPOS>ATOM
      1 C1           0.0000     0.0000     0.0000 c3         1 X24      -0.105433
      2 C2           1.5300     0.0000     0.0000 c3         1 X24       0.177800
      3 C3           2.0400     0.0000     1.4420 c3         1 X24      -0.105433
      4 C4           2.0390    -1.2500    -0.7220 c3         1 X24      -0.105433
      5 O5           2.0130     1.1850    -0.6850 os         1 X24      -0.440900
      6 C6           1.6520     2.3780    -0.1730 c          1 X24       0.752100
      7 O7           0.9510     2.4250     0.8180 o          1 X24      -0.613000
      8 N8           2.0670     3.5170    -0.7610 ns         1 X24      -0.580900
      9 C9           1.6730     4.8140    -0.2050 c3         1 X24       0.135000
     10 C10          2.2740     5.9360    -1.0540 c3         1 X24      -0.090700
     11 C11          1.7630     7.2870    -0.5480 c3         1 X24      -0.074900
     12 C12          2.3620     8.4090    -1.3980 c3         1 X24      -0.074900
     13 C13          3.8880     8.3690    -1.2920 c3         1 X24      -0.091700
     14 C14          4.4880     9.4920    -2.1400 c3         1 X24       0.114000
     15 N15          5.9390     9.5290    -1.9460 ns         1 X24      -0.576900
     16 C16          6.6830    10.4440    -2.5980 c          1 X24       0.672700
     17 O17          6.1510    11.2380    -3.3480 o          1 X24      -0.591100
     18 C18          8.1490    10.4810    -2.4010 ca         1 X24      -0.078600
     19 C19          8.7730     9.6690    -1.4660 ca         1 X24      -0.224300
     20 C20         10.1660     9.7370    -1.3130 cp         1 X24       0.444800
     21 N21         10.9130    10.5520    -2.0280 nb         1 X24      -0.655000
     22 C22         10.3970    11.3680    -2.9480 ca         1 X24       0.410600
     23 C23         11.2200    12.2290    -3.6990 ca         1 X24      -0.168300
     24 C24         10.6660    13.0520    -4.6290 ca         1 X24      -0.106000
     25 C25          9.2910    13.0580    -4.8570 ca         1 X24      -0.106000
     26 C26          8.4620    12.2380    -4.1490 ca         1 X24      -0.111000
     27 C27          9.0000    11.3740    -3.1880 ca         1 X24      -0.103300
     28 C28         10.8200     8.8630    -0.3100 cp         1 X24      -0.071500
     29 C29         12.2030     8.9100    -0.1350 ca         1 X24      -0.100000
     30 C30         12.8060     8.0930     0.7990 ca         1 X24      -0.101500
     31 C31         12.0410     7.2290     1.5630 ca         1 X24      -0.205300
     32 C32         12.7050     6.3400     2.5830 c3         1 X24       0.160100
     33 N33         12.7670     7.0370     3.8740 nz         1 X24      -0.810600
     34 C34         10.6680     7.1790     1.3950 ca         1 X24      -0.101500
     35 C35         10.0540     7.9950     0.4670 ca         1 X24      -0.100000
     36 C36          4.3990     7.0190    -1.7970 c3         1 X24      -0.074900
     37 C37          3.8000     5.8960    -0.9480 c3         1 X24      -0.074900
     38 H11C        -0.3610     0.4140    -0.9330 hc         1 X24       0.050144
     39 H12C        -0.3610    -1.0160     0.1080 hc         1 X24       0.050144
     40 H13C        -0.3610     0.6010     0.8260 hc         1 X24       0.050144
     41 H31C         1.3810     0.6000     2.0580 hc         1 X24       0.050144
     42 H32C         3.0400     0.4150     1.4720 hc         1 X24       0.050144
     43 H33C         2.0590    -1.0160     1.8180 hc         1 X24       0.050144
     44 H41C         3.1220    -1.2500    -0.7230 hc         1 X24       0.050144
     45 H42C         1.6780    -2.1340    -0.2110 hc         1 X24       0.050144
     46 H43C         1.6780    -1.2490    -1.7430 hc         1 X24       0.050144
     47 H8           2.6060     3.4770    -1.6040 hn         1 X24       0.321500
     48 H91C         2.0370     4.8960     0.8120 h1         1 X24       0.056700
     49 H92C         0.5930     4.8960    -0.2100 h1         1 X24       0.056700
     50 H10          1.9830     5.8070    -2.0900 hc         1 X24       0.061700
     51 H111         2.0600     7.4200     0.4850 hc         1 X24       0.047700
     52 H112         0.6830     7.3150    -0.6260 hc         1 X24       0.047700
     53 H371         4.0920     6.0320     0.0870 hc         1 X24       0.047700
     54 H372         4.1610     4.9410    -1.3080 hc         1 X24       0.047700
     55 H121         2.0010     9.3650    -1.0390 hc         1 X24       0.047450
     56 H122         2.0700     8.2730    -2.4320 hc         1 X24       0.047450
     57 H13          4.1790     8.4990    -0.2560 hc         1 X24       0.050700
     58 H141         4.2680     9.3110    -3.1850 h1         1 X24       0.062700
     59 H142         4.0590    10.4400    -1.8400 h1         1 X24       0.062700
     60 H361         4.1020     6.8860    -2.8300 hc         1 X24       0.047450
     61 H362         5.4790     6.9910    -1.7190 hc         1 X24       0.047450
     62 H15          6.3730     8.9030    -1.2960 hn         1 X24       0.309500
     63 H19          8.1890     8.9860    -0.8600 ha         1 X24       0.131000
     64 H23         12.2910    12.2370    -3.5350 ha         1 X24       0.150000
     65 H24         11.3040    13.7120    -5.2040 ha         1 X24       0.144000
     66 H25          8.8760    13.7230    -5.6040 ha         1 X24       0.147000
     67 H26          7.3950    12.2510    -4.3340 ha         1 X24       0.196000
     68 H29         12.8020     9.5860    -0.7330 ha         1 X24       0.168500
     69 H35          8.9800     7.9540     0.3360 ha         1 X24       0.168500
     70 H30         13.8800     8.1290     0.9360 ha         1 X24       0.135500
     71 H321        12.1330     5.4270     2.6930 hx         1 X24       0.111200
     72 H322        13.7090     6.1000     2.2530 hx         1 X24       0.111200
     73 H34         10.0740     6.5020     1.9970 ha         1 X24       0.135500
     74 H331        11.8400     7.2550     4.1800 hn         1 X24       0.454133
     75 H332        13.2920     7.8830     3.7710 hn         1 X24       0.454133
     76 H333        13.2130     6.4480     4.5500 hn         1 X24       0.454133
@<TRIPOS>BOND
     1     1     2 1
     2     2     3 1
     3     2     4 1
     4     2     5 1
     5     5     6 1
     6     6     7 2
     7     6     8 1
     8     8     9 1
     9     9    10 1
    10    10    11 1
    11    10    37 1
    12    11    12 1
    13    12    13 1
    14    13    14 1
    15    13    36 1
    16    14    15 1
    17    15    16 1
    18    16    17 2
    19    16    18 1
    20    18    19 ar
    21    18    27 ar
    22    19    20 ar
    23    20    21 ar
    24    20    28 1
    25    21    22 ar
    26    22    23 ar
    27    22    27 ar
    28    23    24 ar
    29    24    25 ar
    30    25    26 ar
    31    26    27 ar
    32    28    29 ar
    33    28    35 ar
    34    29    30 ar
    35    30    31 ar
    36    31    32 1
    37    31    34 ar
    38    32    33 1
    39    34    35 ar
    40    36    37 1
    41     1    38 1
    42     1    39 1
    43     1    40 1
    44     3    41 1
    45     3    42 1
    46     3    43 1
    47     4    44 1
    48     4    45 1
    49     4    46 1
    50     8    47 1
    51     9    48 1
    52     9    49 1
    53    10    50 1
    54    11    51 1
    55    11    52 1
    56    37    53 1
    57    37    54 1
    58    12    55 1
    59    12    56 1
    60    13    57 1
    61    14    58 1
    62    14    59 1
    63    36    60 1
    64    36    61 1
    65    15    62 1
    66    19    63 1
    67    23    64 1
    68    24    65 1
    69    25    66 1
    70    26    67 1
    71    29    68 1
    72    35    69 1
    73    30    70 1
    74    32    71 1
    75    32    72 1
    76    34    73 1
    77    33    74 1
    78    33    75 1
    79    76    33 1
@<TRIPOS>SUBSTRUCTURE
     1 X24         1 TEMP              0 ****  ****    0 ROOT
