@<TRIPOS>MOLECULE
X25
   52    56     1     0     0
SMALL
bcc


@<TRIPOS>ATOM
      1 C          -0.0090   -0.1460   -0.1890 c3        1 X25     -0.055900
      2 C1          1.4480   -0.0650   -0.0760 cc        1 X25      0.012600
      3 C2          2.2130   -0.0280    1.0780 cd        1 X25     -0.087700
      4 O           3.6000    0.0370    0.7890 os        1 X25     -0.165200
      5 C14         1.8740   -0.0360    2.4670 cd        1 X25      0.594200
      6 N1          2.5950    0.0390    3.5870 nc        1 X25     -0.663000
      7 C15         1.6190   -0.0210    4.6240 cc        1 X25      0.538300
      8 C16         1.9730    0.0370    6.0740 c3        1 X25     -0.054400
      9 C17         2.2150    1.4400    6.5160 ca        1 X25     -0.092300
     10 C18         1.2640    2.1080    7.2950 ca        1 X25     -0.113500
     11 C19         1.5040    3.4120    7.7280 ca        1 X25     -0.132500
     12 C20         2.6920    4.0560    7.3850 ca        1 X25     -0.125000
     13 C21         3.6420    3.3940    6.6070 ca        1 X25     -0.132500
     14 C22         3.4060    2.0910    6.1730 ca        1 X25     -0.113500
     15 N2          0.3680   -0.1290    4.1060 nd        1 X25     -0.371300
     16 O2          0.4820   -0.1430    2.7980 os        1 X25     -0.138100
     17 C3          3.6870    0.0440   -0.5980 ca        1 X25      0.116100
     18 C13         2.3860   -0.0160   -1.1830 ca        1 X25     -0.161800
     19 C4          4.8650    0.1020   -1.3410 ca        1 X25     -0.167000
     20 C5          4.7180    0.1040   -2.7240 ca        1 X25     -0.058000
     21 C6          3.4610    0.0520   -3.3440 ca        1 X25     -0.242000
     22 C7          2.2850   -0.0100   -2.5870 ca        1 X25      0.202100
     23 O1          1.0080   -0.0630   -3.0910 os        1 X25     -0.322900
     24 C8          0.8560   -0.1470   -4.5210 c3        1 X25      0.141100
     25 C9         -0.5370   -0.7360   -4.7340 c3        1 X25     -0.094400
     26 C10        -0.8810   -0.7350   -6.2220 c3        1 X25      0.165800
     27 N          -0.7370    0.5680   -6.8410 n3        1 X25     -0.822200
     28 C11         0.5570    1.1830   -6.6190 c3        1 X25      0.165800
     29 C12         0.9490    1.2390   -5.1450 c3        1 X25     -0.094400
     30 HC1        -0.5070    0.3650    0.6740 hc        1 X25      0.066700
     31 HC2        -0.3300   -1.2200   -0.1900 hc        1 X25      0.066700
     32 HC3        -0.3510    0.3220   -1.1460 hc        1 X25      0.066700
     33 H161        1.1430   -0.4230    6.6770 hc        1 X25      0.076700
     34 H162        2.9000   -0.5770    6.2430 hc        1 X25      0.076700
     35 H18         0.3230    1.6050    7.5640 ha        1 X25      0.140500
     36 H22         4.1520    1.5710    5.5520 ha        1 X25      0.140500
     37 H19         0.7520    3.9320    8.3390 ha        1 X25      0.132500
     38 H20         2.8790    5.0840    7.7270 ha        1 X25      0.131000
     39 H21         4.5790    3.9010    6.3330 ha        1 X25      0.132500
     40 H4          5.8460    0.1440   -0.8530 ha        1 X25      0.159000
     41 H5          5.6170    0.1510   -3.3590 ha        1 X25      0.139000
     42 H6          3.4190    0.0680   -4.4410 ha        1 X25      0.142000
     43 H8          1.6310   -0.8370   -4.9520 h1        1 X25      0.052700
     44 H91C       -1.2850   -0.1330   -4.1580 hc        1 X25      0.063950
     45 H92C       -0.5690   -1.7860   -4.3480 hc        1 X25      0.063950
     46 H121        1.9920    1.6360   -5.0580 hc        1 X25      0.063950
     47 H122        0.2700    1.9370   -4.5890 hc        1 X25      0.063950
     48 H101       -1.9580   -1.0440   -6.3410 h1        1 X25      0.031700
     49 H102       -0.2440   -1.5190   -6.7300 h1        1 X25      0.031700
     50 H          -0.9240    0.5050   -7.8240 hn        1 X25      0.368800
     51 H111        1.3810    0.6510   -7.1820 h1        1 X25      0.031700
     52 H112        0.4980    2.2360   -7.0180 h1        1 X25      0.031700
@<TRIPOS>BOND
     1    1    2 1
     2    1   30 1
     3    1   31 1
     4    1   32 1
     5    2    3 2
     6    2   18 1
     7    3    4 1
     8    3    5 1
     9    4   17 1
    10    5    6 2
    11    5   16 1
    12    6    7 1
    13    7    8 1
    14    7   15 2
    15    8    9 1
    16    8   33 1
    17    8   34 1
    18    9   10 ar
    19    9   14 ar
    20   10   11 ar
    21   10   35 1
    22   11   12 ar
    23   11   37 1
    24   12   13 ar
    25   12   38 1
    26   13   14 ar
    27   13   39 1
    28   14   36 1
    29   15   16 1
    30   17   18 ar
    31   17   19 ar
    32   18   22 ar
    33   19   20 ar
    34   19   40 1
    35   20   21 ar
    36   20   41 1
    37   21   22 ar
    38   21   42 1
    39   22   23 1
    40   23   24 1
    41   24   25 1
    42   24   29 1
    43   24   43 1
    44   25   26 1
    45   25   44 1
    46   25   45 1
    47   26   27 1
    48   26   48 1
    49   26   49 1
    50   27   28 1
    51   27   50 1
    52   28   29 1
    53   28   51 1
    54   28   52 1
    55   29   46 1
    56   29   47 1
@<TRIPOS>SUBSTRUCTURE
     1 X25         1 TEMP              0 ****  ****    0 ROOT
