@<TRIPOS>MOLECULE
molecule
   96   102     1     0     0
SMALL
bcc


@<TRIPOS>ATOM
      1 O1           0.0000     0.0000     0.0000 o          1 X26      -0.643500
      2 C27          1.2160     0.0000     0.0000 c          1 X26       0.721100
      3 N1           1.8190     0.0000     1.1800 n          1 X26      -0.356000
      4 C28          0.9530    -0.0260     2.3610 c3         1 X26       0.088300
      5 C19          3.1940     0.0210     1.4130 ca         1 X26      -0.255000
      6 C18          3.7090     0.7870     2.4500 ca         1 X26       0.475200
      7 N4           5.0140     0.7650     2.6820 nb         1 X26      -0.788000
      8 C26          1.8840    -0.0050    -1.3060 ca         1 X26      -0.157600
      9 C25          1.3560     0.7490    -2.3600 ca         1 X26      -0.059000
     10 C24          1.9590     0.7220    -3.5980 ca         1 X26      -0.149000
     11 C23          3.0870    -0.0540    -3.8110 ca         1 X26      -0.095000
     12 C22          3.6280    -0.7940    -2.7790 ca         1 X26      -0.151000
     13 C21          3.0440    -0.7630    -1.5200 ca         1 X26       0.194600
     14 N2           3.6400    -1.4410    -0.4620 na         1 X26      -0.736700
     15 C29          3.7990    -2.8980    -0.5060 c3         1 X26       0.258500
     16 C20          4.0820    -0.7190     0.6320 ca         1 X26       0.753200
     17 N3           5.3760    -0.7090     0.9370 nb         1 X26      -0.794000
     18 C17          5.8260     0.0230     1.9450 ca         1 X26       0.934900
     19 N5           7.1810     0.0130     2.2360 nu         1 X26      -0.736300
     20 C14          7.6900     0.8590     3.2210 ca         1 X26       0.155600
     21 C13          8.8770     0.5280     3.8780 ca         1 X26       0.095100
     22 C12          9.3820     1.3650     4.8530 ca         1 X26      -0.150000
     23 C15          7.0180     2.0310     3.5430 ca         1 X26      -0.125000
     24 C16          7.5170     2.8690     4.5170 ca         1 X26      -0.135000
     25 C11          8.7010     2.5420     5.1800 ca         1 X26      -0.132600
     26 C2           8.9080     5.1120     7.9780 c3         1 X26       0.095000
     27 C1           8.3500     4.7790     9.3660 c3         1 X26      -0.096900
     28 C3           6.9420     3.9210     6.9270 c3         1 X26       0.095000
     29 C4           6.4050     3.6010     8.3250 c3         1 X26      -0.096900
     30 C            6.8230     4.7110     9.2930 c3         1 X26       0.172500
     31 C31          5.2860    -3.2720    -0.3420 c3         1 X26      -0.100900
     32 O2           9.5360    -0.6180     3.5580 os         1 X26      -0.338900
     33 C5          10.7010    -0.9330     4.3240 c3         1 X26       0.134100
     34 C6           9.2370     3.4390     6.2220 c          1 X26       0.681700
     35 O3          10.4380     3.5530     6.3670 o          1 X26      -0.612100
     36 N6           8.3940     4.1320     7.0140 n          1 X26      -0.485800
     37 N7           6.2820     4.4240    10.6290 n3         1 X26      -0.729600
     38 C30          6.6630     5.4710    11.5880 c3         1 X26       0.159300
     39 C33          6.1500     5.0960    12.9790 c3         1 X26       0.163800
     40 N8           4.6900     4.9350    12.9330 n3         1 X26      -0.734600
     41 C35          4.3080     3.8880    11.9740 c3         1 X26       0.163800
     42 C36          4.8220     4.2630    10.5830 c3         1 X26       0.159300
     43 C37          4.1480     4.6480    14.2680 c3         1 X26       0.153100
     44 C7           3.0510    -3.5450     0.6720 c3         1 X26      -0.100900
     45 C8           4.1090    -4.2900     1.5110 c3         1 X26      -0.086400
     46 C9          10.3100    -1.8230     5.5050 c3         1 X26      -0.104100
     47 C10         11.7070    -1.6710     3.4400 c3         1 X26      -0.104100
     48 C32          5.4380    -3.5720     1.1710 c3         1 X26      -0.086400
     49 H1           1.5270    -0.3490     3.2220 h1         1 X26       0.051033
     50 H2           0.5590     0.9660     2.5420 h1         1 X26       0.051033
     51 H3           0.1340    -0.7150     2.1940 h1         1 X26       0.051033
     52 H4           3.0530     1.3980     3.0590 h4         1 X26       0.038100
     53 H5           0.4740     1.3580    -2.2010 ha         1 X26       0.152000
     54 H6           1.5410     1.3000    -4.4130 ha         1 X26       0.137000
     55 H7           3.5550    -0.0690    -4.7880 ha         1 X26       0.135000
     56 H8           4.5100    -1.3990    -2.9510 ha         1 X26       0.144000
     57 H9           3.4220    -3.2890    -1.4430 h1         1 X26       0.068700
     58 H10          7.7960    -0.5970     1.7340 hn         1 X26       0.479800
     59 H11         10.3010     1.1090     5.3660 ha         1 X26       0.162000
     60 H12          6.0990     2.2860     3.0290 ha         1 X26       0.180000
     61 H13          6.9900     3.7820     4.7680 ha         1 X26       0.144000
     62 H15          9.9900     5.0640     8.0020 h1         1 X26       0.061950
     63 H16          8.7390     3.8220     9.6910 hc         1 X26       0.058950
     64 H17          8.6430     5.5510    10.0670 hc         1 X26       0.058950
     65 H18          6.7360     3.0910     6.2610 h1         1 X26       0.061950
     66 H19          6.4670     4.8200     6.5530 h1         1 X26       0.061950
     67 H20          5.3240     3.5400     8.2910 hc         1 X26       0.058950
     68 H21          6.8150     2.6560     8.6620 hc         1 X26       0.058950
     69 H22          6.4370     5.6590     8.9390 h1         1 X26       0.024700
     70 H23          5.5210    -4.1530    -0.9270 hc         1 X26       0.056950
     71 H24          5.9190    -2.4400    -0.6270 hc         1 X26       0.056950
     72 H25         11.1480    -0.0180     4.6940 h1         1 X26       0.058700
     73 H27          7.7430     5.5590    11.6140 h1         1 X26       0.042200
     74 H28          6.2250     6.4140    11.2840 h1         1 X26       0.042200
     75 H29          6.6050     4.1640    13.2920 h1         1 X26       0.040700
     76 H30          6.4030     5.8820    13.6800 h1         1 X26       0.040700
     77 H32          3.2290     3.8000    11.9480 h1         1 X26       0.040700
     78 H33          4.7460     2.9450    12.2780 h1         1 X26       0.040700
     79 H34          4.5680     3.4770     9.8810 h1         1 X26       0.042200
     80 H35          4.3660     5.1950    10.2700 h1         1 X26       0.042200
     81 H36          4.4030     3.6330    14.5500 h1         1 X26       0.032033
     82 H37          4.5720     5.3400    14.9860 h1         1 X26       0.032033
     83 H38          3.0710     4.7590    14.2520 h1         1 X26       0.032033
     84 H39          2.5750    -2.7790     1.2730 hc         1 X26       0.056950
     85 H40          2.3130    -4.2460     0.3010 hc         1 X26       0.056950
     86 H41          3.8890    -4.1950     2.5670 hc         1 X26       0.048200
     87 H42          4.1580    -5.3320     1.2190 hc         1 X26       0.048200
     88 H43         11.0340    -1.7060     6.3010 hc         1 X26       0.046700
     89 H44          9.3290    -1.5360     5.8640 hc         1 X26       0.046700
     90 H45         10.2880    -2.8580     5.1850 hc         1 X26       0.046700
     91 H46         11.9800    -1.0430     2.6010 hc         1 X26       0.046700
     92 H47         11.2620    -2.5890     3.0740 hc         1 X26       0.046700
     93 H48         12.5930    -1.9050     4.0180 hc         1 X26       0.046700
     94 H49          6.2820    -4.2270     1.3480 hc         1 X26       0.048200
     95 H50          5.5310    -2.6520     1.7360 hc         1 X26       0.048200
     96 H14          8.5890     6.1060     7.6890 h1         1 X26       0.061950
@<TRIPOS>BOND
     1    47    33 1
     2    46    33 1
     3    33    32 1
     4    32    21 1
     5    21    22 ar
     6    21    20 ar
     7     7     6 ar
     8     7    18 ar
     9    19    18 1
    10    19    20 1
    11    22    25 ar
    12     6     5 ar
    13    28    29 1
    14    28    36 1
    15    18    17 ar
    16    20    23 ar
    17    29    30 1
    18    42    41 1
    19    42    37 1
    20     4     3 1
    21    30    37 1
    22    30    27 1
    23    36    26 1
    24    36    34 1
    25    25    34 1
    26    25    24 ar
    27     5     3 1
    28     5    16 ar
    29    41    40 1
    30    26    27 1
    31    40    43 1
    32    40    39 1
    33    17    16 ar
    34    37    38 1
    35     3     2 1
    36    23    24 ar
    37    34    35 2
    38    38    39 1
    39    16    14 1
    40     2     1 2
    41     2     8 1
    42    14    13 1
    43    14    15 1
    44     8    13 ar
    45     8     9 ar
    46    31    15 1
    47    31    48 1
    48    13    12 ar
    49     9    10 ar
    50    15    44 1
    51    12    11 ar
    52    10    11 ar
    53    48    45 1
    54    44    45 1
    55     4    49 1
    56     4    50 1
    57     4    51 1
    58     6    52 1
    59     9    53 1
    60    10    54 1
    61    11    55 1
    62    12    56 1
    63    15    57 1
    64    19    58 1
    65    22    59 1
    66    23    60 1
    67    24    61 1
    68    26    96 1
    69    26    62 1
    70    27    63 1
    71    27    64 1
    72    28    65 1
    73    28    66 1
    74    29    67 1
    75    29    68 1
    76    30    69 1
    77    31    70 1
    78    31    71 1
    79    33    72 1
    80    38    73 1
    81    38    74 1
    82    39    75 1
    83    39    76 1
    84    41    77 1
    85    41    78 1
    86    42    79 1
    87    42    80 1
    88    43    81 1
    89    43    82 1
    90    43    83 1
    91    44    84 1
    92    44    85 1
    93    45    86 1
    94    45    87 1
    95    46    88 1
    96    46    89 1
    97    46    90 1
    98    47    91 1
    99    47    92 1
   100    47    93 1
   101    48    94 1
   102    48    95 1
@<TRIPOS>SUBSTRUCTURE
     1 X26         1 TEMP              0 ****  ****    0 ROOT
