@<TRIPOS>MOLECULE
X26
   96   102     1     0     0
SMALL
bcc


@<TRIPOS>ATOM
      1 O1           0.0000     0.0000     0.0000 o          1 X26      -0.686500
      2 C27          1.2160     0.0000     0.0000 c          1 X26       0.627100
      3 N1           1.8190     0.0000     1.1800 n          1 X26       0.054000
      4 C28          0.9530    -0.0260     2.3610 c3         1 X26       0.049300
      5 C19          3.1940     0.0210     1.4130 ca         1 X26      -0.399000
      6 C18          3.7090     0.7870     2.4500 ca         1 X26       0.471200
      7 N4           5.0140     0.7650     2.6820 nb         1 X26      -0.684000
      8 C26          1.8840    -0.0050    -1.3060 ca         1 X26      -0.158600
      9 C25          1.3560     0.7490    -2.3600 ca         1 X26      -0.025000
     10 C24          1.9590     0.7220    -3.5980 ca         1 X26      -0.122000
     11 C23          3.0870    -0.0540    -3.8110 ca         1 X26      -0.066000
     12 C22          3.6280    -0.7940    -2.7790 ca         1 X26      -0.127000
     13 C21          3.0440    -0.7630    -1.5200 ca         1 X26       0.059600
     14 N2           3.6400    -1.4410    -0.4620 na         1 X26      -0.368700
     15 C29          3.7990    -2.8980    -0.5060 c3         1 X26       0.162500
     16 C20          4.0820    -0.7190     0.6320 ca         1 X26       0.590200
     17 N3           5.3760    -0.7090     0.9370 nb         1 X26      -0.681000
     18 C17          5.8260     0.0230     1.9450 ca         1 X26       0.698900
     19 N5           7.1810     0.0130     2.2360 nu         1 X26      -0.256300
     20 C14          7.6900     0.8590     3.2210 ca         1 X26      -0.018400
     21 C13          8.8770     0.5280     3.8780 ca         1 X26       0.109100
     22 C12          9.3820     1.3650     4.8530 ca         1 X26      -0.136000
     23 C15          7.0180     2.0310     3.5430 ca         1 X26      -0.109000
     24 C16          7.5170     2.8690     4.5170 ca         1 X26      -0.123000
     25 C11          8.7010     2.5420     5.1800 ca         1 X26      -0.128600
     26 C2           8.9080     5.1120     7.9780 c3         1 X26       0.028500
     27 C1           8.3500     4.7790     9.3660 c3         1 X26      -0.051900
     28 C3           6.9420     3.9210     6.9270 c3         1 X26       0.028500
     29 C4           6.4050     3.6010     8.3250 c3         1 X26      -0.051900
     30 C            6.8230     4.7110     9.2930 c3         1 X26       0.131500
     31 C31          5.2860    -3.2720    -0.3420 c3         1 X26      -0.049900
     32 O2           9.5360    -0.6180     3.5580 os         1 X26      -0.311900
     33 C5          10.7010    -0.9330     4.3240 c3         1 X26       0.157100
     34 C6           9.2370     3.4390     6.2220 c          1 X26       0.614700
     35 O3          10.4380     3.5530     6.3670 o          1 X26      -0.653100
     36 N6           8.3940     4.1320     7.0140 n          1 X26      -0.143800
     37 N7           6.2820     4.4240    10.6290 n3         1 X26      -0.538600
     38 C30          6.6630     5.4710    11.5880 c3         1 X26       0.141800
     39 C33          6.1500     5.0960    12.9790 c3         1 X26       0.156300
     40 N8           4.6900     4.9350    12.9330 n3         1 X26      -0.550600
     41 C35          4.3080     3.8880    11.9740 c3         1 X26       0.156300
     42 C36          4.8220     4.2630    10.5830 c3         1 X26       0.141800
     43 C37          4.1480     4.6480    14.2680 c3         1 X26       0.189100
     44 C7           3.0510    -3.5450     0.6720 c3         1 X26      -0.049900
     45 C8           4.1090    -4.2900     1.5110 c3         1 X26      -0.031900
     46 C9          10.3100    -1.8230     5.5050 c3         1 X26      -0.013600
     47 C10         11.7070    -1.6710     3.4400 c3         1 X26      -0.013600
     48 C32          5.4380    -3.5720     1.1710 c3         1 X26      -0.031900
     49 H1           1.5270    -0.3490     3.2220 h1         1 X26       0.021700
     50 H2           0.5590     0.9660     2.5420 h1         1 X26       0.021700
     51 H3           0.1340    -0.7150     2.1940 h1         1 X26       0.021700
     52 H4           3.0530     1.3980     3.0590 h4         1 X26      -0.006900
     53 H5           0.4740     1.3580    -2.2010 ha         1 X26       0.120000
     54 H6           1.5410     1.3000    -4.4130 ha         1 X26       0.108000
     55 H7           3.5550    -0.0690    -4.7880 ha         1 X26       0.104000
     56 H8           4.5100    -1.3990    -2.9510 ha         1 X26       0.116000
     57 H9           3.4220    -3.2890    -1.4430 h1         1 X26       0.041700
     58 H10          7.7960    -0.5970     1.7340 hn         1 X26       0.303800
     59 H11         10.3010     1.1090     5.3660 ha         1 X26       0.145000
     60 H12          6.0990     2.2860     3.0290 ha         1 X26       0.157000
     61 H13          6.9900     3.7820     4.7680 ha         1 X26       0.125000
     62 H15          9.9900     5.0640     8.0020 h1         1 X26       0.039450
     63 H16          8.7390     3.8220     9.6910 hc         1 X26       0.033700
     64 H17          8.6430     5.5510    10.0670 hc         1 X26       0.033700
     65 H18          6.7360     3.0910     6.2610 h1         1 X26       0.039450
     66 H19          6.4670     4.8200     6.5530 h1         1 X26       0.039450
     67 H20          5.3240     3.5400     8.2910 hc         1 X26       0.033700
     68 H21          6.8150     2.6560     8.6620 hc         1 X26       0.033700
     69 H22          6.4370     5.6590     8.9390 h1         1 X26       0.012700
     70 H23          5.5210    -4.1530    -0.9270 hc         1 X26       0.027700
     71 H24          5.9190    -2.4400    -0.6270 hc         1 X26       0.027700
     72 H25         11.1480    -0.0180     4.6940 h1         1 X26       0.034700
     73 H27          7.7430     5.5590    11.6140 h1         1 X26       0.018950
     74 H28          6.2250     6.4140    11.2840 h1         1 X26       0.018950
     75 H29          6.6050     4.1640    13.2920 h1         1 X26       0.013700
     76 H30          6.4030     5.8820    13.6800 h1         1 X26       0.013700
     77 H32          3.2290     3.8000    11.9480 h1         1 X26       0.013700
     78 H33          4.7460     2.9450    12.2780 h1         1 X26       0.013700
     79 H34          4.5680     3.4770     9.8810 h1         1 X26       0.018950
     80 H35          4.3660     5.1950    10.2700 h1         1 X26       0.018950
     81 H36          4.4030     3.6330    14.5500 h1         1 X26       0.000367
     82 H37          4.5720     5.3400    14.9860 h1         1 X26       0.000367
     83 H38          3.0710     4.7590    14.2520 h1         1 X26       0.000367
     84 H39          2.5750    -2.7790     1.2730 hc         1 X26       0.027700
     85 H40          2.3130    -4.2460     0.3010 hc         1 X26       0.027700
     86 H41          3.8890    -4.1950     2.5670 hc         1 X26       0.019700
     87 H42          4.1580    -5.3320     1.2190 hc         1 X26       0.019700
     88 H43         11.0340    -1.7060     6.3010 hc         1 X26       0.013367
     89 H44          9.3290    -1.5360     5.8640 hc         1 X26       0.013367
     90 H45         10.2880    -2.8580     5.1850 hc         1 X26       0.013367
     91 H46         11.9800    -1.0430     2.6010 hc         1 X26       0.013367
     92 H47         11.2620    -2.5890     3.0740 hc         1 X26       0.013367
     93 H48         12.5930    -1.9050     4.0180 hc         1 X26       0.013367
     94 H49          6.2820    -4.2270     1.3480 hc         1 X26       0.019700
     95 H50          5.5310    -2.6520     1.7360 hc         1 X26       0.019700
     96 H14          8.5890     6.1060     7.6890 h1         1 X26       0.039450
@<TRIPOS>BOND
     1     1     2 2   
     2     2     3 1   
     3     2     8 1   
     4     3     4 1   
     5     3     5 1   
     6     4    49 1   
     7     4    50 1   
     8     4    51 1   
     9     5     6 ar  
    10     5    16 ar  
    11     6     7 ar  
    12     6    52 1   
    13     7    18 ar  
    14     8     9 ar  
    15     8    13 ar  
    16     9    10 ar  
    17     9    53 1   
    18    10    11 ar  
    19    10    54 1   
    20    11    12 ar  
    21    11    55 1   
    22    12    13 ar  
    23    12    56 1   
    24    13    14 1   
    25    14    15 1   
    26    14    16 1   
    27    15    31 1   
    28    15    44 1   
    29    15    57 1   
    30    16    17 ar  
    31    17    18 ar  
    32    18    19 1   
    33    19    20 1   
    34    19    58 1   
    35    20    21 ar  
    36    20    23 ar  
    37    21    22 ar  
    38    21    32 1   
    39    22    25 ar  
    40    22    59 1   
    41    23    24 ar  
    42    23    60 1   
    43    24    25 ar  
    44    24    61 1   
    45    25    34 1   
    46    26    27 1   
    47    26    36 1   
    48    26    62 1   
    49    26    96 1   
    50    27    30 1   
    51    27    63 1   
    52    27    64 1   
    53    28    29 1   
    54    28    36 1   
    55    28    65 1   
    56    28    66 1   
    57    29    30 1   
    58    29    67 1   
    59    29    68 1   
    60    30    37 1   
    61    30    69 1   
    62    31    48 1   
    63    31    70 1   
    64    31    71 1   
    65    32    33 1   
    66    33    46 1   
    67    33    47 1   
    68    33    72 1   
    69    34    35 2   
    70    34    36 1   
    71    37    38 1   
    72    37    42 1   
    73    38    39 1   
    74    38    73 1   
    75    38    74 1   
    76    39    40 1   
    77    39    75 1   
    78    39    76 1   
    79    40    41 1   
    80    40    43 1   
    81    41    42 1   
    82    41    77 1   
    83    41    78 1   
    84    42    79 1   
    85    42    80 1   
    86    43    81 1   
    87    43    82 1   
    88    43    83 1   
    89    44    45 1   
    90    44    84 1   
    91    44    85 1   
    92    45    48 1   
    93    45    86 1   
    94    45    87 1   
    95    46    88 1   
    96    46    89 1   
    97    46    90 1   
    98    47    91 1   
    99    47    92 1   
   100    47    93 1   
   101    48    94 1   
   102    48    95 1   
@<TRIPOS>SUBSTRUCTURE
     1 X26         1 TEMP              0 ****  ****    0 ROOT
