@<TRIPOS>MOLECULE
X28
   48    50     1     0     0
SMALL
bcc


@<TRIPOS>ATOM
      1 C1           0.0000     0.0000     0.0000 ca         1 X28      -0.090000
      2 C2           1.3820     0.0000     0.0000 ca         1 X28      -0.090500
      3 C3           2.0730     0.0000     1.1970 ca         1 X28      -0.095500
      4 C4           1.3820     0.0000     2.3950 ca         1 X28      -0.113300
      5 C5           0.0000     0.0000     2.3940 ca         1 X28      -0.095500
      6 C6          -0.6910    -0.0010     1.1970 ca         1 X28      -0.090500
      7 C7           2.1360    -0.0010     3.7000 c3         1 X28       0.077200
      8 C8           2.3880     1.4190     4.1350 ca         1 X28       0.005700
      9 C9           1.4620     2.0680     4.9350 ca         1 X28      -0.096000
     10 C10          1.6790     3.3680     5.3410 ca         1 X28      -0.089000
     11 C11          2.8380     4.0370     4.9470 ca         1 X28      -0.251600
     12 C12          3.7770     3.3780     4.1350 cp         1 X28       0.141000
     13 C13          3.5420     2.0640     3.7400 ca         1 X28      -0.093000
     14 C14          5.0130     4.0750     3.7070 cp         1 X28      -0.119000
     15 C15          5.8940     4.5870     4.6590 ca         1 X28      -0.111000
     16 C16          7.0420     5.2350     4.2550 ca         1 X28      -0.097000
     17 C17          7.3220     5.3760     2.9070 ca         1 X28      -0.070000
     18 C18          6.4530     4.8710     1.9570 ca         1 X28      -0.040300
     19 C19          5.3030     4.2160     2.3500 ca         1 X28      -0.069000
     20 C20          6.7640     5.0300     0.4920 c3         1 X28       0.024900
     21 C21          7.5820     3.8300     0.0100 c3         1 X28      -0.129400
     22 C22          7.8930     3.9900    -1.4550 c          1 X28       0.975600
     23 O23          8.6070     3.0500    -2.0960 o          1 X28      -0.890300
     24 O24          7.5020     4.9630    -2.0540 o          1 X28      -0.890300
     25 C25          3.0750     5.4290     5.3770 c          1 X28       0.333700
     26 O26          4.0250     6.0480     4.9360 o          1 X28      -0.400100
     27 N27          2.2420     6.0130     6.2600 nz         1 X28       0.192600
     28 H1          -0.5420    -0.0010    -0.9380 ha         1 X28       0.109000
     29 H2           1.9240     0.0000    -0.9380 ha         1 X28       0.111000
     30 H6          -1.7740    -0.0010     1.1970 ha         1 X28       0.111000
     31 H3           3.1570    -0.0000     1.1970 ha         1 X28       0.105500
     32 H5          -0.5420    -0.0000     3.3320 ha         1 X28       0.105500
     33 H71C         1.5500    -0.5120     4.4550 hc         1 X28       0.033200
     34 H72C         3.0820    -0.5130     3.5700 hc         1 X28       0.033200
     35 H9           0.5610     1.5520     5.2440 ha         1 X28       0.122000
     36 H13          4.2620     1.5500     3.1140 ha         1 X28       0.147000
     37 H10          0.9510     3.8690     5.9670 ha         1 X28       0.072000
     38 H15          5.6760     4.4770     5.7140 ha         1 X28       0.079000
     39 H19          4.6220     3.8210     1.6060 ha         1 X28       0.118000
     40 H16          7.7270     5.6330     4.9940 ha         1 X28       0.101000
     41 H17          8.2240     5.8880     2.5940 ha         1 X28       0.122000
     42 H201         5.8390     5.0850    -0.0700 hc         1 X28       0.034200
     43 H202         7.3330     5.9400     0.3400 hc         1 X28       0.034200
     44 H211         8.5070     3.7750     0.5720 hc         1 X28       0.006700
     45 H212         7.0130     2.9210     0.1620 hc         1 X28       0.006700
     46 H271         2.2050     5.4650     7.0970 hn         1 X28       0.239800
     47 H272         1.3260     6.0770     5.8620 hn         1 X28       0.239800
     48 H273         2.5760     6.9320     6.4770 hn         1 X28       0.239800
@<TRIPOS>BOND
     1     1     2 ar  
     2     1     6 ar  
     3     1    28 1   
     4     2     3 ar  
     5     2    29 1   
     6     3     4 ar  
     7     3    31 1   
     8     4     5 ar  
     9     4     7 1   
    10     5     6 ar  
    11     5    32 1   
    12     6    30 1   
    13     7     8 1   
    14     7    33 1   
    15     7    34 1   
    16     8     9 ar  
    17     8    13 ar  
    18     9    10 ar  
    19     9    35 1   
    20    10    11 ar  
    21    10    37 1   
    22    11    12 ar  
    23    11    25 1   
    24    12    13 ar  
    25    12    14 1   
    26    13    36 1   
    27    14    15 ar  
    28    14    19 ar  
    29    15    16 ar  
    30    15    38 1   
    31    16    17 ar  
    32    16    40 1   
    33    17    18 ar  
    34    17    41 1   
    35    18    19 ar  
    36    18    20 1   
    37    19    39 1   
    38    20    21 1   
    39    20    42 1   
    40    20    43 1   
    41    21    22 1   
    42    21    44 1   
    43    21    45 1   
    44    22    23 1   
    45    22    24 1   
    46    25    26 2   
    47    25    27 1   
    48    27    46 1   
    49    27    47 1   
    50    27    48 1   
@<TRIPOS>SUBSTRUCTURE
     1 X28         1 TEMP              0 ****  ****    0 ROOT
