@<TRIPOS>MOLECULE
molecule
   48    50     1     0     0
SMALL
bcc


@<TRIPOS>ATOM
      1 C1           0.0000     0.0000     0.0000 ca         1 X28      -0.117000
      2 C2           1.3820     0.0000     0.0000 ca         1 X28      -0.119500
      3 C3           2.0730     0.0000     1.1970 ca         1 X28      -0.120500
      4 C4           1.3820     0.0000     2.3950 ca         1 X28      -0.102300
      5 C5           0.0000     0.0000     2.3940 ca         1 X28      -0.120500
      6 C6          -0.6910    -0.0010     1.1970 ca         1 X28      -0.119500
      7 C7           2.1360    -0.0010     3.7000 c3         1 X28       0.000200
      8 C8           2.3880     1.4190     4.1350 ca         1 X28       0.003700
      9 C9           1.4620     2.0680     4.9350 ca         1 X28      -0.126000
     10 C10          1.6790     3.3680     5.3410 ca         1 X28      -0.116000
     11 C11          2.8380     4.0370     4.9470 ca         1 X28      -0.227600
     12 C12          3.7770     3.3780     4.1350 cp         1 X28       0.111000
     13 C13          3.5420     2.0640     3.7400 ca         1 X28      -0.116000
     14 C14          5.0130     4.0750     3.7070 cp         1 X28      -0.112000
     15 C15          5.8940     4.5870     4.6590 ca         1 X28      -0.127000
     16 C16          7.0420     5.2350     4.2550 ca         1 X28      -0.126000
     17 C17          7.3220     5.3760     2.9070 ca         1 X28      -0.100000
     18 C18          6.4530     4.8710     1.9570 ca         1 X28      -0.041300
     19 C19          5.3030     4.2160     2.3500 ca         1 X28      -0.098000
     20 C20          6.7640     5.0300     0.4920 c3         1 X28      -0.034100
     21 C21          7.5820     3.8300     0.0100 c3         1 X28      -0.179400
     22 C22          7.8930     3.9900    -1.4550 c          1 X28       0.888600
     23 O23          8.6070     3.0500    -2.0960 o          1 X28      -0.841300
     24 O24          7.5020     4.9630    -2.0540 o          1 X28      -0.841300
     25 C25          3.0750     5.4290     5.3770 c          1 X28       0.486700
     26 O26          4.0250     6.0480     4.9360 o          1 X28      -0.389100
     27 N27          2.2420     6.0130     6.2600 nz         1 X28      -0.677400
     28 H1          -0.5420    -0.0010    -0.9380 ha         1 X28       0.138000
     29 H2           1.9240     0.0000    -0.9380 ha         1 X28       0.140000
     30 H6          -1.7740    -0.0010     1.1970 ha         1 X28       0.140000
     31 H3           3.1570    -0.0000     1.1970 ha         1 X28       0.130000
     32 H5          -0.5420    -0.0000     3.3320 ha         1 X28       0.130000
     33 H71C         1.5500    -0.5120     4.4550 hc         1 X28       0.068700
     34 H72C         3.0820    -0.5130     3.5700 hc         1 X28       0.068700
     35 H9           0.5610     1.5520     5.2440 ha         1 X28       0.150000
     36 H13          4.2620     1.5500     3.1140 ha         1 X28       0.178000
     37 H10          0.9510     3.8690     5.9670 ha         1 X28       0.098000
     38 H15          5.6760     4.4770     5.7140 ha         1 X28       0.099000
     39 H19          4.6220     3.8210     1.6060 ha         1 X28       0.144000
     40 H16          7.7270     5.6330     4.9940 ha         1 X28       0.128000
     41 H17          8.2240     5.8880     2.5940 ha         1 X28       0.151000
     42 H201         5.8390     5.0850    -0.0700 hc         1 X28       0.064200
     43 H202         7.3330     5.9400     0.3400 hc         1 X28       0.064200
     44 H211         8.5070     3.7750     0.5720 hc         1 X28       0.031700
     45 H212         7.0130     2.9210     0.1620 hc         1 X28       0.031700
     46 H271         2.2050     5.4650     7.0970 hn         1 X28       0.467800
     47 H272         1.3260     6.0770     5.8620 hn         1 X28       0.467800
     48 H273         2.5760     6.9320     6.4770 hn         1 X28       0.467800
@<TRIPOS>BOND
     1     1     2 ar
     2     1     6 ar
     3     2     3 ar
     4     3     4 ar
     5     4     5 ar
     6     4     7 1
     7     5     6 ar
     8     7     8 1
     9     8     9 ar
    10     8    13 ar
    11     9    10 ar
    12    10    11 ar
    13    11    12 ar
    14    11    25 1
    15    12    13 ar
    16    12    14 1
    17    14    15 ar
    18    14    19 ar
    19    15    16 ar
    20    16    17 ar
    21    17    18 ar
    22    18    19 ar
    23    18    20 1
    24    20    21 1
    25    21    22 1
    26    22    23 1
    27    22    24 1
    28    25    26 2
    29    25    27 1
    30     1    28 1
    31     2    29 1
    32     6    30 1
    33     3    31 1
    34     5    32 1
    35     7    33 1
    36     7    34 1
    37     9    35 1
    38    13    36 1
    39    10    37 1
    40    15    38 1
    41    19    39 1
    42    16    40 1
    43    17    41 1
    44    20    42 1
    45    20    43 1
    46    21    44 1
    47    21    45 1
    48    27    46 1
    49    27    47 1
    50    48    27 1
@<TRIPOS>SUBSTRUCTURE
     1 X28         1 TEMP              0 ****  ****    0 ROOT
