@<TRIPOS>MOLECULE
X29
   26    28     1     0     0
SMALL
bcc


@<TRIPOS>ATOM
      1 C01        -0.0320   -0.0520   -0.0460 cc        1 X29     -0.066900
      2 C02         1.4000   -0.0130   -0.0580 cc        1 X29     -0.104000
      3 C03         2.1090    0.0360    1.1090 cd        1 X29     -0.076000
      4 C04        -0.7250   -0.0390    1.1470 cd        1 X29     -0.031300
      5 N05        -0.0330    0.0130    2.3330 na        1 X29     -0.073200
      6 C06         1.4010    0.0490    2.3520 cd        1 X29     -0.077300
      7 N07         1.8010    0.0940    3.6710 nc        1 X29     -0.077000
      8 N08         0.7460    0.0870    4.4410 nc        1 X29     -0.308700
      9 C09        -0.4080    0.0390    3.6930 cd        1 X29      0.356400
     10 Br1        -0.9650   -0.1210   -1.6590 br        1 X29     -0.050100
     11 C11        -1.7810    0.0100    4.1690 ca        1 X29     -0.161900
     12 C12        -2.2120   -0.9990    5.0610 ca        1 X29      0.207100
     13 C13        -3.5210   -1.0030    5.5590 ca        1 X29     -0.253000
     14 C14        -4.4120    0.0010    5.1570 ca        1 X29      0.195100
     15 C15        -3.9940    1.0030    4.2580 ca        1 X29     -0.114600
     16 C16        -2.6840    1.0010    3.7790 ca        1 X29     -0.036000
     17 O17        -5.6730   -0.0770    5.6860 oh        1 X29     -0.483100
     18 O18        -1.3110   -1.9750    5.3910 oh        1 X29     -0.465100
     19 Cl1        -5.0640    2.2240    3.7530 cl        1 X29     -0.084400
     20 H1          1.9230   -0.0250   -1.0280 ha        1 X29      0.160000
     21 H2          3.2080    0.0650    1.1400 ha        1 X29      0.173000
     22 H3         -1.8270   -0.0700    1.2230 h4        1 X29      0.184000
     23 H4         -3.8610   -1.7780    6.2600 ha        1 X29      0.164000
     24 H5         -2.3510    1.7980    3.0940 ha        1 X29      0.157000
     25 H6         -6.1940    0.6740    5.3570 ho        1 X29      0.437000
     26 H7         -1.7100   -2.5400    6.0720 ho        1 X29      0.429000
@<TRIPOS>BOND
     1    1    2 1   
     2    1    4 2   
     3    1   10 1   
     4    2    3 2   
     5    2   20 1   
     6    3    6 1   
     7    3   21 1   
     8    4    5 1   
     9    4   22 1   
    10    5    6 1   
    11    5    9 1   
    12    6    7 2   
    13    7    8 1   
    14    8    9 2   
    15    9   11 1   
    16   11   12 ar  
    17   11   16 ar  
    18   12   13 ar  
    19   12   18 1   
    20   13   14 ar  
    21   13   23 1   
    22   14   15 ar  
    23   14   17 1   
    24   15   16 ar  
    25   15   19 1   
    26   16   24 1   
    27   17   25 1   
    28   18   26 1   
@<TRIPOS>SUBSTRUCTURE
     1 X29         1 TEMP              0 ****  ****    0 ROOT
