@<TRIPOS>MOLECULE
molecule
   26    28     1     0     0
SMALL
bcc


@<TRIPOS>ATOM
      1 C01          0.0000     0.0000     0.0000 cc         1 X29      -0.050900
      2 C02          1.4060     0.0000     0.0000 cc         1 X29      -0.107000
      3 C03          2.0810     0.0000     1.1810 cd         1 X29      -0.075000
      4 C04         -0.6820     0.0050     1.1650 cd         1 X29      -0.044300
      5 N05         -0.0180     0.0060     2.3560 na         1 X29      -0.054200
      6 C06          1.3560    -0.0010     2.3880 cd         1 X29      -0.067300
      7 N07          1.7140    -0.0010     3.6630 nc         1 X29      -0.086000
      8 N08          0.6650    -0.0010     4.4080 nc         1 X29      -0.307700
      9 C09         -0.4220     0.0110     3.6640 cd         1 X29       0.350400
     10 Br1         -0.9400     0.0010    -1.6410 br         1 X29      -0.057100
     11 C11         -1.8170     0.0150     4.1490 ca         1 X29      -0.122900
     12 C12         -2.2120    -0.8700     5.1610 ca         1 X29       0.184100
     13 C13         -3.5200    -0.8600     5.6120 ca         1 X29      -0.235000
     14 C14         -4.4370     0.0230     5.0620 ca         1 X29       0.160100
     15 C15         -4.0490     0.9020     4.0580 ca         1 X29      -0.026600
     16 C16         -2.7450     0.9050     3.6060 ca         1 X29      -0.074000
     17 O17         -5.7210     0.0290     5.5070 oh         1 X29      -0.507100
     18 O18         -1.3130    -1.7350     5.6990 oh         1 X29      -0.479100
     19 Cl1         -5.2030     2.0030     3.3760 cl         1 X29      -0.081400
     20 H1           1.9500    -0.0040    -0.9370 ha         1 X29       0.159000
     21 H2           3.1640    -0.0000     1.1930 ha         1 X29       0.171000
     22 H3          -1.7650     0.0050     1.1540 h4         1 X29       0.179000
     23 H4          -3.8280    -1.5430     6.3940 ha         1 X29       0.155000
     24 H5          -2.4440     1.5910     2.8230 ha         1 X29       0.155000
     25 H6          -6.1950    -0.6830     5.1090 ho         1 X29       0.430000
     26 H7          -1.4730    -1.8200     6.6240 ho         1 X29       0.432000
@<TRIPOS>BOND
     1    18    12 1
     2     7     8 1
     3     7     6 2
     4     8     9 2
     5    12    13 ar
     6    12    11 ar
     7     6     3 1
     8     6     5 1
     9    13    14 ar
    10     9    11 1
    11     9     5 1
    12     3     2 2
    13    11    16 ar
    14     5     4 1
    15     2     1 1
    16     4     1 2
    17    14    17 1
    18    14    15 ar
    19     1    10 1
    20    16    15 ar
    21    15    19 1
    22     2    20 1
    23     3    21 1
    24     4    22 1
    25    13    23 1
    26    16    24 1
    27    17    25 1
    28    18    26 1
@<TRIPOS>SUBSTRUCTURE
     1 X29         1 TEMP              0 ****  ****    0 ROOT
