@<TRIPOS>MOLECULE
molecule
   60    63     1     0     0
SMALL
bcc


@<TRIPOS>ATOM
      1 N01          0.0000     0.0000     0.0000 nb         1 X2C      -0.753000
      2 C02          1.3240     0.0000     0.0000 ca         1 X2C       0.698200
      3 N02          2.0130     0.0000    -1.2070 nv         1 X2C      -1.041500
      4 C03          2.0320     0.0000     1.1980 ca         1 X2C      -0.304300
      5 C04          1.3330    -0.0000     2.3920 ca         1 X2C      -0.021300
      6 C05         -0.0550     0.0000     2.3470 ca         1 X2C      -0.292300
      7 C06         -0.6920     0.0000     1.1230 ca         1 X2C       0.462600
      8 C07          2.0610    -0.0010     3.7110 c3         1 X2C      -0.049800
      9 C08         -2.1980     0.0010     1.0690 c3         1 X2C      -0.111700
     10 O09         -4.7580     0.0610     0.8280 os         1 X2C      -0.408600
     11 N1'         -3.4970     3.3980     0.6350 n7         1 X2C      -0.792200
     12 C10         -5.9810    -0.4410     0.2840 c3         1 X2C       0.137400
     13 C11         -6.4670    -1.6230     1.1270 c3         1 X2C       0.159800
     14 N12         -6.8060    -1.1540     2.4770 n7         1 X2C      -0.772200
     15 C13         -7.2780    -2.2630     3.3170 cx         1 X2C       0.109500
     16 C14         -7.1190    -2.1200     4.8310 cx         1 X2C      -0.072400
     17 C15         -8.5060    -2.0110     4.1940 cx         1 X2C      -0.167400
     18 C2'         -2.3360     2.5150     0.9220 c3         1 X2C       0.139800
     19 C21         -6.8100    -3.3660     5.6190 ca         1 X2C      -0.043300
     20 C22         -5.6470    -3.4440     6.3630 ca         1 X2C      -0.116000
     21 C23         -5.3640    -4.5870     7.0870 ca         1 X2C      -0.080300
     22 C24         -6.2430    -5.6530     7.0650 ca         1 X2C      -0.132000
     23 C25         -7.4060    -5.5770     6.3220 ca         1 X2C      -0.122000
     24 C26         -7.6920    -4.4300     5.6030 ca         1 X2C      -0.140000
     25 C27         -4.0960    -4.6720     7.8970 c3         1 X2C      -0.047800
     26 C3'         -2.6780     1.1830     0.2230 c3         1 X2C      -0.061700
     27 C4'         -4.2170     1.1710     0.1100 c3         1 X2C       0.135100
     28 C5'         -4.6750     2.4990     0.7510 c3         1 X2C       0.110800
     29 HN02         2.8070     0.5970    -1.3300 hn         1 X2C       0.436300
     30 HN0A         1.6890    -0.5650    -1.9670 hn         1 X2C       0.436300
     31 H03          3.1150    -0.0000     1.1960 ha         1 X2C       0.136000
     32 H05         -0.6320     0.0000     3.2640 ha         1 X2C       0.138000
     33 H07          2.0180    -0.9910     4.1470 hc         1 X2C       0.046367
     34 H07A         1.5940     0.7100     4.3820 hc         1 X2C       0.046367
     35 H07B         3.0960     0.2800     3.5520 hc         1 X2C       0.046367
     36 H08         -2.5440    -0.9240     0.6240 hc         1 X2C       0.068700
     37 H08A        -2.5960     0.0900     2.0720 hc         1 X2C       0.068700
     38 HN1'        -3.5530     4.1130     1.3330 hn         1 X2C       0.345800
     39 H10         -5.8150    -0.7690    -0.7350 h1         1 X2C       0.025200
     40 H10A        -6.7300     0.3420     0.2940 h1         1 X2C       0.025200
     41 H13         -7.1870    -3.2760     2.9450 h1         1 X2C       0.090700
     42 H14         -6.6940    -1.1770     5.1550 hc         1 X2C       0.098700
     43 H15         -9.1560    -2.8640     4.3430 hc         1 X2C       0.077200
     44 H15A        -8.9200    -1.0120     4.1430 hc         1 X2C       0.077200
     45 H2'         -2.2340     2.3640     1.9900 h1         1 X2C       0.045200
     46 H2'A        -1.4300     2.9380     0.5050 h1         1 X2C       0.045200
     47 H22         -4.9580    -2.6090     6.3800 ha         1 X2C       0.135000
     48 H24         -6.0200    -6.5500     7.6300 ha         1 X2C       0.128000
     49 H25         -8.0960    -6.4110     6.3070 ha         1 X2C       0.128000
     50 H26         -8.6030    -4.3700     5.0200 ha         1 X2C       0.129000
     51 H27         -4.1860    -5.4660     8.6270 hc         1 X2C       0.043033
     52 H27A        -3.2600    -4.8800     7.2390 hc         1 X2C       0.043033
     53 H27B        -3.9290    -3.7300     8.4060 hc         1 X2C       0.043033
     54 H3'         -2.2310     1.1530    -0.7630 hc         1 X2C       0.084700
     55 H4'         -4.5150     1.1360    -0.9310 h1         1 X2C       0.048700
     56 H5'         -4.9300     2.3460     1.7930 h1         1 X2C       0.047200
     57 H5'A        -5.5170     2.9100     0.2060 h1         1 X2C       0.047200
     58 H30         -7.5190    -0.4530     2.4170 hn         1 X2C       0.354800
     59 H11         -5.6830    -2.3680     1.1900 h1         1 X2C       0.045200
     60 H32         -7.3440    -2.0590     0.6650 h1         1 X2C       0.045200
@<TRIPOS>BOND
     1     2     1 ar
     2     2     3 1
     3     3    29 1
     4     3    30 1
     5     4     2 ar
     6     4    31 1
     7     5     4 ar
     8     5     6 ar
     9     6     7 ar
    10     6    32 1
    11     7     1 ar
    12     7     9 1
    13     8     5 1
    14     8    33 1
    15     8    34 1
    16     8    35 1
    17     9    36 1
    18     9    37 1
    19    10    12 1
    20    11    28 1
    21    11    18 1
    22    11    38 1
    23    12    13 1
    24    12    39 1
    25    12    40 1
    26    14    13 1
    27    14    15 1
    28    15    17 1
    29    15    41 1
    30    16    15 1
    31    16    19 1
    32    16    17 1
    33    16    42 1
    34    17    43 1
    35    17    44 1
    36    18    26 1
    37    18    45 1
    38    18    46 1
    39    19    20 ar
    40    20    21 ar
    41    20    47 1
    42    21    25 1
    43    22    21 ar
    44    22    48 1
    45    23    22 ar
    46    23    49 1
    47    24    19 ar
    48    24    23 ar
    49    24    50 1
    50    25    51 1
    51    25    52 1
    52    25    53 1
    53    26     9 1
    54    26    27 1
    55    26    54 1
    56    27    10 1
    57    27    55 1
    58    28    27 1
    59    28    56 1
    60    28    57 1
    61    14    58 1
    62    13    59 1
    63    13    60 1
@<TRIPOS>SUBSTRUCTURE
     1 X2C         1 TEMP              0 ****  ****    0 ROOT
