@<TRIPOS>MOLECULE
molecule
   57    60     1     0     0
SMALL
bcc


@<TRIPOS>ATOM
      1 N01          0.0000     0.0000     0.0000 nb         1 X2D      -0.750000
      2 C02          1.3250     0.0000     0.0000 ca         1 X2D       0.698200
      3 N02          2.0130     0.0010    -1.2080 nv         1 X2D      -1.043500
      4 C03          2.0320     0.0000     1.1970 ca         1 X2D      -0.303300
      5 C04          1.3350    -0.0010     2.3910 ca         1 X2D      -0.021300
      6 C05         -0.0530    -0.0010     2.3480 ca         1 X2D      -0.291300
      7 C06         -0.6910    -0.0010     1.1240 ca         1 X2D       0.461600
      8 C07          2.0640    -0.0020     3.7100 c3         1 X2D      -0.049800
      9 C08         -2.1970    -0.0000     1.0700 c3         1 X2D      -0.111700
     10 O09         -4.7580     0.0600     0.8320 os         1 X2D      -0.409600
     11 N1'         -3.4960     3.3970     0.6410 n7         1 X2D      -0.792200
     12 C10         -5.9800    -0.4420     0.2870 c3         1 X2D       0.138400
     13 C11         -6.4660    -1.6240     1.1300 c3         1 X2D       0.159800
     14 N12         -6.8040    -1.1560     2.4810 n7         1 X2D      -0.773200
     15 C13         -7.2750    -2.2660     3.3200 cx         1 X2D       0.112500
     16 C14         -7.1150    -2.1230     4.8350 cx         1 X2D      -0.077400
     17 C15         -8.5030    -2.0150     4.1980 cx         1 X2D      -0.165400
     18 C2'         -2.3350     2.5150     0.9260 c3         1 X2D       0.139800
     19 C21         -6.8050    -3.3710     5.6220 ca         1 X2D      -0.036300
     20 C22         -7.6810    -4.4390     5.5960 ca         1 X2D      -0.130000
     21 C23         -7.3960    -5.5840     6.3190 ca         1 X2D       0.032400
     22 Cl23        -8.4960    -6.9270     6.2870 cl         1 X2D      -0.113400
     23 C24         -6.2350    -5.6590     7.0670 ca         1 X2D      -0.126000
     24 C25         -5.3590    -4.5890     7.0920 ca         1 X2D      -0.117000
     25 C26         -5.6420    -3.4480     6.3650 ca         1 X2D      -0.116000
     26 C3'         -2.6770     1.1820     0.2260 c3         1 X2D      -0.061700
     27 C4'         -4.2160     1.1720     0.1150 c3         1 X2D       0.135100
     28 C5'         -4.6740     2.4980     0.7570 c3         1 X2D       0.111800
     29 HN02         1.7140    -0.5940    -1.9550 hn         1 X2D       0.436800
     30 HN0A         2.8090     0.5960    -1.3300 hn         1 X2D       0.436800
     31 H03          3.1160     0.0000     1.1940 ha         1 X2D       0.136000
     32 H05         -0.6290    -0.0020     3.2650 ha         1 X2D       0.138000
     33 H07          3.0950    -0.2970     3.5520 hc         1 X2D       0.046700
     34 H07A         1.5880    -0.7010     4.3860 hc         1 X2D       0.046700
     35 H07B         2.0350     0.9930     4.1390 hc         1 X2D       0.046700
     36 H08         -2.5430    -0.9250     0.6260 hc         1 X2D       0.068200
     37 H08A        -2.5940     0.0880     2.0750 hc         1 X2D       0.068200
     38 HN1'        -3.5520     4.1120     1.3390 hn         1 X2D       0.346800
     39 H10         -6.7290     0.3410     0.2980 h1         1 X2D       0.025700
     40 H10A        -5.8140    -0.7690    -0.7320 h1         1 X2D       0.025700
     41 H11         -5.6820    -2.3700     1.1920 h1         1 X2D       0.045700
     42 H11A        -7.3430    -2.0600     0.6690 h1         1 X2D       0.045700
     43 HN12        -7.5160    -0.4550     2.4220 hn         1 X2D       0.355800
     44 H13         -7.1830    -3.2790     2.9480 h1         1 X2D       0.091700
     45 H14         -6.6900    -1.1810     5.1590 hc         1 X2D       0.101700
     46 H15         -8.9180    -1.0160     4.1470 hc         1 X2D       0.078700
     47 H15A        -9.1530    -2.8690     4.3470 hc         1 X2D       0.078700
     48 H2'         -2.2310     2.3640     1.9940 h1         1 X2D       0.045200
     49 H2'A        -1.4300     2.9380     0.5080 h1         1 X2D       0.045200
     50 H22         -8.6110    -4.3630     5.0460 ha         1 X2D       0.144000
     51 H24         -6.0130    -6.5540     7.6350 ha         1 X2D       0.143000
     52 H25         -4.4490    -4.6470     7.6750 ha         1 X2D       0.137000
     53 H26         -4.9550    -2.6100     6.3840 ha         1 X2D       0.139000
     54 H3'         -2.2310     1.1520    -0.7600 hc         1 X2D       0.085700
     55 H4'         -4.5150     1.1370    -0.9260 h1         1 X2D       0.048700
     56 H5'         -4.9280     2.3440     1.7980 h1         1 X2D       0.046700
     57 H5'A        -5.5150     2.9090     0.2120 h1         1 X2D       0.046700
@<TRIPOS>BOND
     1     7     1 ar
     2     1     2 ar
     3     3     2 1
     4     2     4 ar
     5     3    29 1
     6     3    30 1
     7     4     5 ar
     8     4    31 1
     9     6     5 ar
    10     5     8 1
    11     7     6 ar
    12     6    32 1
    13     9     7 1
    14     8    33 1
    15     8    34 1
    16     8    35 1
    17     9    26 1
    18     9    36 1
    19     9    37 1
    20    12    10 1
    21    10    27 1
    22    28    11 1
    23    18    11 1
    24    11    38 1
    25    13    12 1
    26    12    39 1
    27    12    40 1
    28    13    14 1
    29    13    41 1
    30    13    42 1
    31    15    14 1
    32    14    43 1
    33    17    15 1
    34    15    16 1
    35    15    44 1
    36    17    16 1
    37    19    16 1
    38    16    45 1
    39    17    46 1
    40    17    47 1
    41    26    18 1
    42    18    48 1
    43    18    49 1
    44    20    19 ar
    45    19    25 ar
    46    21    20 ar
    47    20    50 1
    48    22    21 1
    49    21    23 ar
    50    23    24 ar
    51    23    51 1
    52    24    25 ar
    53    24    52 1
    54    25    53 1
    55    27    26 1
    56    26    54 1
    57    27    28 1
    58    27    55 1
    59    28    56 1
    60    28    57 1
@<TRIPOS>SUBSTRUCTURE
     1 X2D         1 TEMP              0 ****  ****    0 ROOT
