@<TRIPOS>MOLECULE
molecule
   59    61     1     0     0
SMALL
bcc


@<TRIPOS>ATOM
      1 N01          0.0000     0.0000     0.0000 nb         1 X2E      -0.766000
      2 C02          1.3240     0.0000     0.0000 ca         1 X2E       0.706200
      3 N02          2.0120     0.0030    -1.2080 nv         1 X2E      -1.024500
      4 C03          2.0330     0.0000     1.1970 ca         1 X2E      -0.322300
      5 C04          1.3340    -0.0020     2.3920 ca         1 X2E      -0.010300
      6 C05         -0.0530    -0.0030     2.3480 ca         1 X2E      -0.306300
      7 C06         -0.6920    -0.0020     1.1240 ca         1 X2E       0.473600
      8 C07          2.0640    -0.0030     3.7100 c3         1 X2E      -0.049800
      9 C08         -2.1970    -0.0040     1.0710 c3         1 X2E      -0.112700
     10 O09         -4.7470    -0.0130     0.7330 os         1 X2E      -0.407600
     11 N1'         -3.5780     3.3600     0.6430 n7         1 X2E      -0.791200
     12 C10         -5.9680    -0.5020     0.1720 c3         1 X2E       0.138400
     13 C11         -6.4470    -1.7140     0.9730 c3         1 X2E       0.157800
     14 N11         -6.7870    -1.2950     2.3390 n7         1 X2E      -0.803200
     15 C13         -7.2520    -2.4360     3.1390 c3         1 X2E       0.162500
     16 C14         -7.0050    -2.1540     4.6220 c3         1 X2E      -0.024100
     17 C15         -8.7480    -2.6480     2.9030 c3         1 X2E      -0.130100
     18 C2'         -4.7320     2.4270     0.6990 c3         1 X2E       0.110800
     19 C21         -5.5220    -2.0670     4.8770 ca         1 X2E      -0.045300
     20 C22         -4.8730    -0.8510     4.7750 ca         1 X2E      -0.108000
     21 C23         -3.5140    -0.7700     5.0080 ca         1 X2E      -0.108000
     22 C24         -2.8000    -1.9050     5.3440 ca         1 X2E      -0.171000
     23 C25         -3.4490    -3.1240     5.4460 ca         1 X2E       0.128900
     24 F25         -2.7520    -4.2350     5.7740 f          1 X2E      -0.146900
     25 C26         -4.8130    -3.2030     5.2170 ca         1 X2E      -0.170000
     26 C3'         -4.2110     1.1240     0.0550 c3         1 X2E       0.135100
     27 C4'         -2.6790     1.1780     0.2270 c3         1 X2E      -0.061700
     28 C5'         -2.4030     2.5090     0.9610 c3         1 X2E       0.139800
     29 HN02         2.9520     0.3460    -1.2480 hn         1 X2E       0.437300
     30 HN0A         1.5750    -0.3550    -2.0340 hn         1 X2E       0.437300
     31 H03          3.1160     0.0010     1.1940 ha         1 X2E       0.134000
     32 H05         -0.6300    -0.0050     3.2650 ha         1 X2E       0.136000
     33 H07          1.6370     0.7500     4.3600 hc         1 X2E       0.046033
     34 H07A         3.1120     0.2170     3.5430 hc         1 X2E       0.046033
     35 H07B         1.9700    -0.9770     4.1740 hc         1 X2E       0.046033
     36 H08         -2.5940     0.0840     2.0760 hc         1 X2E       0.069700
     37 H08A        -2.5420    -0.9300     0.6270 hc         1 X2E       0.069700
     38 HN1'        -3.6820     4.0620     1.3490 hn         1 X2E       0.345800
     39 H10         -6.7200     0.2770     0.2110 h1         1 X2E       0.024700
     40 H10A        -5.8010    -0.7920    -0.8580 h1         1 X2E       0.024700
     41 H11         -7.3230    -2.1380     0.4960 h1         1 X2E       0.043200
     42 H11A        -5.6600    -2.4580     1.0080 h1         1 X2E       0.043200
     43 HN11        -7.5030    -0.5970     2.3060 hn         1 X2E       0.350800
     44 H13         -6.7100    -3.3270     2.8460 h1         1 X2E       0.065700
     45 H14         -7.4270    -2.9550     5.2170 hc         1 X2E       0.051200
     46 H14A        -7.4740    -1.2160     4.8940 hc         1 X2E       0.051200
     47 H15         -9.1350    -3.3420     3.6400 hc         1 X2E       0.039033
     48 H15A        -8.9040    -3.0530     1.9100 hc         1 X2E       0.039033
     49 H15B        -9.2660    -1.7010     2.9920 hc         1 X2E       0.039033
     50 H2'         -5.0220     2.2490     1.7270 h1         1 X2E       0.045700
     51 H2'A        -5.5640     2.8230     0.1280 h1         1 X2E       0.045700
     52 H22         -5.4310     0.0400     4.5120 ha         1 X2E       0.140000
     53 H23         -3.0070     0.1840     4.9280 ha         1 X2E       0.131000
     54 H24         -1.7350    -1.8410     5.5260 ha         1 X2E       0.140000
     55 H26         -5.3210    -4.1560     5.2970 ha         1 X2E       0.140000
     56 H3'         -4.4690     1.0990    -0.9970 h1         1 X2E       0.048700
     57 H4'         -2.1940     1.1780    -0.7420 hc         1 X2E       0.085700
     58 H5'         -1.4950     2.9650     0.5850 h1         1 X2E       0.044700
     59 H5'A        -2.3370     2.3420     2.0290 h1         1 X2E       0.044700
@<TRIPOS>BOND
     1     1     7 ar
     2     1     2 ar
     3     3     2 1
     4     2     4 ar
     5     3    29 1
     6     3    30 1
     7     4     5 ar
     8     4    31 1
     9     6     5 ar
    10     5     8 1
    11     7     6 ar
    12     6    32 1
    13     9     7 1
    14     8    33 1
    15     8    34 1
    16     8    35 1
    17     9    27 1
    18     9    36 1
    19     9    37 1
    20    12    10 1
    21    10    26 1
    22    18    11 1
    23    28    11 1
    24    11    38 1
    25    13    12 1
    26    12    39 1
    27    12    40 1
    28    13    14 1
    29    13    41 1
    30    13    42 1
    31    15    14 1
    32    14    43 1
    33    17    15 1
    34    15    16 1
    35    15    44 1
    36    19    16 1
    37    16    45 1
    38    16    46 1
    39    17    47 1
    40    17    48 1
    41    17    49 1
    42    26    18 1
    43    18    50 1
    44    18    51 1
    45    25    19 ar
    46    19    20 ar
    47    21    20 ar
    48    20    52 1
    49    22    21 ar
    50    21    53 1
    51    23    22 ar
    52    22    54 1
    53    24    23 1
    54    23    25 ar
    55    25    55 1
    56    26    27 1
    57    26    56 1
    58    27    28 1
    59    27    57 1
    60    28    58 1
    61    28    59 1
@<TRIPOS>SUBSTRUCTURE
     1 X2E         1 TEMP              0 ****  ****    0 ROOT
