@<TRIPOS>MOLECULE
X2K
   34    36     1     0     0
SMALL
bcc


@<TRIPOS>ATOM
      1 CAB          0.0000     0.0000     0.0000 c3         1 X2K       0.098200
      2 CAN          1.5070     0.0000     0.0000 cc         1 X2K      -0.106300
      3 CAH          2.3370     0.0000     1.1220 cc         1 X2K      -0.187000
      4 CAL          3.6230    -0.0010     0.6920 cd         1 X2K      -0.300600
      5 CAA          4.8430    -0.0020     1.5780 c3         1 X2K       0.108200
      6 NAJ          3.6340    -0.0010    -0.6640 na         1 X2K       0.479900
      7 CAO          2.3310    -0.0060    -1.1150 cd         1 X2K      -0.363100
      8 CAE          1.9130    -0.0120    -2.4610 cf         1 X2K       0.148800
      9 CAQ          2.6570    -0.6870    -3.4120 cc         1 X2K      -0.246400
     10 CAS          2.4610    -0.6780    -4.8790 ca         1 X2K      -0.066800
     11 CAI          1.5480    -0.0430    -5.7140 ca         1 X2K      -0.080000
     12 CAM          1.6230    -0.2360    -7.0840 ca         1 X2K       0.017600
     13 NAC          0.7080     0.3990    -7.9320 nv         1 X2K      -0.533200
     14 CAF          2.6090    -1.0600    -7.6170 ca         1 X2K      -0.109000
     15 CAG          3.5170    -1.6900    -6.7920 ca         1 X2K      -0.095000
     16 CAR          3.4550    -1.5090    -5.4150 ca         1 X2K      -0.134400
     17 NAK          4.2320    -2.0160    -4.3780 ns         1 X2K       0.015900
     18 CAP          3.8130    -1.5630    -3.1840 c          1 X2K       0.629700
     19 OAD          4.3050    -1.8340    -2.1030 o          1 X2K      -0.706500
     20 HAB1        -0.3610    -0.0870     1.0180 hc         1 X2K       0.002367
     21 HAB2        -0.3610    -0.8380    -0.5840 hc         1 X2K       0.002367
     22 HAB3        -0.3610     0.9250    -0.4330 hc         1 X2K       0.002367
     23 HAH          2.0120     0.0160     2.1550 ha         1 X2K       0.128000
     24 HAA1         5.6560     0.5060     1.0730 hc         1 X2K       0.006033
     25 HAA2         4.6160     0.5120     2.5050 hc         1 X2K       0.006033
     26 HAA3         5.1320    -1.0230     1.7930 hc         1 X2K       0.006033
     27 HAJ          4.4520    -0.0030    -1.2410 hn         1 X2K       0.134700
     28 HAE          1.0320     0.5440    -2.7580 ha         1 X2K       0.107000
     29 HAI          0.8600     0.6880    -5.3070 ha         1 X2K       0.110000
     30 HAC1         1.0290     1.0700    -8.6020 hn         1 X2K       0.270800
     31 HAC2        -0.2610     0.1520    -7.8980 hn         1 X2K       0.270800
     32 HAF          2.6640    -1.2080    -8.6880 ha         1 X2K       0.108000
     33 HAG          4.2800    -2.3300    -7.2180 ha         1 X2K       0.103000
     34 HAK          5.0090    -2.6340    -4.5050 hn         1 X2K       0.173500
@<TRIPOS>BOND
     1     1     2 1   
     2     1    20 1   
     3     1    21 1   
     4     1    22 1   
     5     2     3 1   
     6     2     7 2   
     7     3     4 2   
     8     3    23 1   
     9     4     5 1   
    10     4     6 1   
    11     5    24 1   
    12     5    25 1   
    13     5    26 1   
    14     6     7 1   
    15     6    27 1   
    16     7     8 1   
    17     8     9 2   
    18     8    28 1   
    19     9    10 1   
    20     9    18 1   
    21    10    11 ar  
    22    10    16 ar  
    23    11    12 ar  
    24    11    29 1   
    25    12    13 1   
    26    12    14 ar  
    27    13    30 1   
    28    13    31 1   
    29    14    15 ar  
    30    14    32 1   
    31    15    16 ar  
    32    15    33 1   
    33    16    17 1   
    34    17    18 1   
    35    17    34 1   
    36    18    19 2   
@<TRIPOS>SUBSTRUCTURE
     1 X2K         1 TEMP              0 ****  ****    0 ROOT
