@<TRIPOS>MOLECULE
molecule
   34    36     1     0     0
SMALL
bcc


@<TRIPOS>ATOM
      1 CAB          0.0000     0.0000     0.0000 c3         1 X2K      -0.020800
      2 CAN          1.5070     0.0000     0.0000 cc         1 X2K      -0.101300
      3 CAH          2.3370     0.0000     1.1220 cc         1 X2K      -0.218000
      4 CAL          3.6230    -0.0010     0.6920 cd         1 X2K      -0.077600
      5 CAA          4.8430    -0.0020     1.5780 c3         1 X2K      -0.023800
      6 NAJ          3.6340    -0.0010    -0.6640 na         1 X2K      -0.107100
      7 CAO          2.3310    -0.0060    -1.1150 cd         1 X2K      -0.149100
      8 CAE          1.9130    -0.0120    -2.4610 cf         1 X2K       0.066800
      9 CAQ          2.6570    -0.6870    -3.4120 cc         1 X2K      -0.207400
     10 CAS          2.4610    -0.6780    -4.8790 ca         1 X2K      -0.085800
     11 CAI          1.5480    -0.0430    -5.7140 ca         1 X2K      -0.112000
     12 CAM          1.6230    -0.2360    -7.0840 ca         1 X2K       0.148600
     13 NAC          0.7080     0.3990    -7.9320 nv         1 X2K      -0.977200
     14 CAF          2.6090    -1.0600    -7.6170 ca         1 X2K      -0.126000
     15 CAG          3.5170    -1.6900    -6.7920 ca         1 X2K      -0.141000
     16 CAR          3.4550    -1.5090    -5.4150 ca         1 X2K       0.030600
     17 NAK          4.2320    -2.0160    -4.3780 ns         1 X2K      -0.451100
     18 CAP          3.8130    -1.5630    -3.1840 c          1 X2K       0.716700
     19 OAD          4.3050    -1.8340    -2.1030 o          1 X2K      -0.643500
     20 HAB1        -0.3610    -0.0890     1.0170 hc         1 X2K       0.040367
     21 HAB2        -0.3610     0.9260    -0.4310 hc         1 X2K       0.040367
     22 HAB3        -0.3610    -0.8360    -0.5860 hc         1 X2K       0.040367
     23 HAH          2.0120     0.0130     2.1560 ha         1 X2K       0.148000
     24 HAA1         5.1170    -1.0230     1.8140 hc         1 X2K       0.048033
     25 HAA2         5.6630     0.4830     1.0630 hc         1 X2K       0.048033
     26 HAA3         4.6240     0.5340     2.4940 hc         1 X2K       0.048033
     27 HAJ          4.4520    -0.0030    -1.2410 hn         1 X2K       0.316700
     28 HAE          1.0110     0.5120    -2.7510 ha         1 X2K       0.149000
     29 HAI          0.7180     0.5100    -5.2890 ha         1 X2K       0.137000
     30 HAC1         0.0390    -0.1430    -8.4420 hn         1 X2K       0.427800
     31 HAC2         0.7120     1.3970    -8.0150 hn         1 X2K       0.427800
     32 HAF          2.6640    -1.2080    -8.6880 ha         1 X2K       0.139000
     33 HAG          4.2800    -2.3300    -7.2180 ha         1 X2K       0.131000
     34 HAK          5.0090    -2.6340    -4.5050 hn         1 X2K       0.338500
@<TRIPOS>BOND
     1     1     2 1
     2     2     3 1
     3     2     7 2
     4     3     4 2
     5     4     5 1
     6     4     6 1
     7     6     7 1
     8     7     8 1
     9     8     9 2
    10     9    10 1
    11     9    18 1
    12    10    11 ar
    13    10    16 ar
    14    11    12 ar
    15    12    13 1
    16    12    14 ar
    17    14    15 ar
    18    15    16 ar
    19    16    17 1
    20    17    18 1
    21    18    19 2
    22     1    20 1
    23     1    21 1
    24     1    22 1
    25     3    23 1
    26     5    24 1
    27     5    25 1
    28     5    26 1
    29     6    27 1
    30     8    28 1
    31    11    29 1
    32    13    30 1
    33    13    31 1
    34    14    32 1
    35    15    33 1
    36    17    34 1
@<TRIPOS>SUBSTRUCTURE
     1 X2K         1 TEMP              0 ****  ****    0 ROOT
