@<TRIPOS>MOLECULE
X2L
   34    36     1     0     0
SMALL
bcc


@<TRIPOS>ATOM
      1 CAH          0.0000     0.0000     0.0000 ca         1 X2L      -0.007000
      2 CAO          1.3720     0.0000     0.0000 ca         1 X2L      -0.189500
      3 CAM          2.0700     0.0000     1.2020 ca         1 X2L       0.171100
      4 OAB          3.4270     0.0000     1.1950 os         1 X2L      -0.308900
      5 CAP          1.3840     0.0000     2.4120 ca         1 X2L      -0.189500
      6 CAI          0.0130     0.0010     2.4250 ca         1 X2L      -0.007000
      7 CAQ         -0.6970     0.0000     1.2160 ca         1 X2L      -0.153800
      8 CAF         -2.1630     0.0010     1.2240 ce         1 X2L       0.084800
      9 CAS         -2.8410    -0.7490     2.1410 cd         1 X2L      -0.191400
     10 CAU         -4.2990    -0.7520     2.4010 ca         1 X2L      -0.095800
     11 CAK         -5.3660    -0.0550     1.8460 ca         1 X2L      -0.057000
     12 CAN         -6.6510    -0.2810     2.3130 ca         1 X2L       0.005600
     13 CAG         -6.8670    -1.2040     3.3310 ca         1 X2L      -0.082000
     14 CAJ         -5.8110    -1.8980     3.8840 ca         1 X2L      -0.113000
     15 CAT         -4.5150    -1.6820     3.4260 ca         1 X2L      -0.107400
     16 CAA          4.0820    -0.0000     2.4660 c3         1 X2L       0.243700
     17 NAL         -3.2960    -2.2400     3.8030 ns         1 X2L       0.001900
     18 CAR         -2.2830    -1.7370     3.0800 c          1 X2L       0.620700
     19 NAB         -7.7310     0.4180     1.7610 nv         1 X2L      -0.556200
     20 OAA         -1.1080    -2.0400     3.1840 o          1 X2L      -0.661500
     21 HAH         -0.5430    -0.0000    -0.9370 ha         1 X2L       0.109500
     22 HAO          1.9120    -0.0000    -0.9390 ha         1 X2L       0.119000
     23 HAP          1.9330     0.0010     3.3460 ha         1 X2L       0.119000
     24 HAA1         5.1550    -0.0000     2.3190 h1         1 X2L      -0.001633
     25 HAA2         3.7940    -0.8850     3.0210 h1         1 X2L      -0.001633
     26 HAA3         3.7940     0.8840     3.0210 h1         1 X2L      -0.001633
     27 HAI         -0.5210     0.0010     3.3680 ha         1 X2L       0.109500
     28 HAF         -2.7080     0.6100     0.5130 ha         1 X2L       0.102000
     29 HAK         -5.1940     0.6630     1.0540 ha         1 X2L       0.108000
     30 HAG         -7.8730    -1.3780     3.6940 ha         1 X2L       0.109000
     31 HAB1        -8.2180     0.0440     0.9710 hn         1 X2L       0.271800
     32 HAB2        -8.0100     1.2970     2.1500 hn         1 X2L       0.271800
     33 HAJ         -5.9910    -2.6150     4.6760 ha         1 X2L       0.105000
     34 HAL         -3.1900    -2.9340     4.5170 hn         1 X2L       0.175500
@<TRIPOS>BOND
     1     1     2 ar  
     2     1     7 ar  
     3     1    21 1   
     4     2     3 ar  
     5     2    22 1   
     6     3     4 1   
     7     3     5 ar  
     8     4    16 1   
     9     5     6 ar  
    10     5    23 1   
    11     6     7 ar  
    12     6    27 1   
    13     7     8 1   
    14     8     9 2   
    15     8    28 1   
    16     9    10 1   
    17     9    18 1   
    18    10    11 ar  
    19    10    15 ar  
    20    11    12 ar  
    21    11    29 1   
    22    12    13 ar  
    23    12    19 1   
    24    13    14 ar  
    25    13    30 1   
    26    14    15 ar  
    27    14    33 1   
    28    15    17 1   
    29    16    24 1   
    30    16    25 1   
    31    16    26 1   
    32    17    18 1   
    33    17    34 1   
    34    18    20 2   
    35    19    31 1   
    36    19    32 1   
@<TRIPOS>SUBSTRUCTURE
     1 X2L         1 TEMP              0 ****  ****    0 ROOT
