@<TRIPOS>MOLECULE
X2M
   32    34     1     0     0
SMALL
bcc


@<TRIPOS>ATOM
      1 C3           0.0000     0.0000     0.0000 c          1 X2M       0.629700
      2 C5           1.4680     0.0000     0.0000 cc         1 X2M      -0.244400
      3 C6           0.6580     0.0010     2.1610 ca         1 X2M      -0.116400
      4 C7           1.8540     0.0000     1.4290 ca         1 X2M      -0.083800
      5 C8           3.0790    -0.0010     2.0870 ca         1 X2M      -0.051000
      6 C9           3.1160    -0.0010     3.4660 ca         1 X2M      -0.122000
      7 C10          1.9370    -0.0000     4.1920 ca         1 X2M      -0.076000
      8 C11          0.7150    -0.0010     3.5490 ca         1 X2M      -0.113000
      9 C19          2.3090    -0.0010    -1.0960 cf         1 X2M       0.150800
     10 C21          1.7770    -0.1590    -2.3930 cd         1 X2M      -0.365100
     11 O4          -0.7160     0.0000    -0.9850 o          1 X2M      -0.702500
     12 N1          -0.4150    -0.0040     1.2780 ns         1 X2M       0.013900
     13 C26          2.2590     0.4220    -3.5560 cc         1 X2M      -0.105300
     14 C25          1.4360    -0.0030    -4.5990 cc         1 X2M      -0.186000
     15 C24          0.4850    -0.8180    -4.0760 cd         1 X2M      -0.300600
     16 N22          0.6840    -0.9250    -2.7380 na         1 X2M       0.478900
     17 CAB          3.4490     1.3410    -3.6710 c3         1 X2M       0.098200
     18 CAA         -0.6100    -1.4990    -4.8550 c3         1 X2M       0.108200
     19 H1          -1.3760    -0.0050     1.5590 hn         1 X2M       0.174500
     20 H19          3.3830    -0.0000    -0.9520 ha         1 X2M       0.107000
     21 H11         -0.2010    -0.0000     4.1280 ha         1 X2M       0.104000
     22 H8           4.0020    -0.0010     1.5180 ha         1 X2M       0.103000
     23 H9           4.0690    -0.0010     3.9820 ha         1 X2M       0.106000
     24 H10          1.9740    -0.0010     5.2750 ha         1 X2M       0.103000
     25 H22          0.1270    -1.4660    -2.1060 hn         1 X2M       0.134700
     26 H25          1.5370     0.2700    -5.6420 ha         1 X2M       0.128000
     27 HAB1         4.3490     0.8020    -3.4030 hc         1 X2M       0.002367
     28 HAB2         3.5320     1.6990    -4.6900 hc         1 X2M       0.002367
     29 HAB3         3.3200     2.1840    -3.0020 hc         1 X2M       0.002367
     30 HAA1        -1.4480    -0.8210    -4.9670 hc         1 X2M       0.006033
     31 HAA2        -0.2380    -1.7780    -5.8330 hc         1 X2M       0.006033
     32 HAA3        -0.9330    -2.3860    -4.3240 hc         1 X2M       0.006033
@<TRIPOS>BOND
     1     1     2 1   
     2     1    11 2   
     3     1    12 1   
     4     2     4 1   
     5     2     9 2   
     6     3     4 ar  
     7     3     8 ar  
     8     3    12 1   
     9     4     5 ar  
    10     5     6 ar  
    11     5    22 1   
    12     6     7 ar  
    13     6    23 1   
    14     7     8 ar  
    15     7    24 1   
    16     8    21 1   
    17     9    10 1   
    18     9    20 1   
    19    10    13 2   
    20    10    16 1   
    21    12    19 1   
    22    13    14 1   
    23    13    17 1   
    24    14    15 2   
    25    14    26 1   
    26    15    16 1   
    27    15    18 1   
    28    16    25 1   
    29    17    27 1   
    30    17    28 1   
    31    17    29 1   
    32    18    30 1   
    33    18    31 1   
    34    18    32 1   
@<TRIPOS>SUBSTRUCTURE
     1 X2M         1 TEMP              0 ****  ****    0 ROOT
