@<TRIPOS>MOLECULE
molecule
   49    50     1     0     0
SMALL
bcc


@<TRIPOS>ATOM
      1 CAL          0.0000     0.0000     0.0000 ca         1 X2O      -0.126000
      2 CAH          1.3820     0.0000     0.0000 ca         1 X2O      -0.126000
      3 CAF          2.0740     0.0000     1.1970 ca         1 X2O      -0.120500
      4 CAI          1.3820    -0.0000     2.3940 ca         1 X2O      -0.126000
      5 CAM          0.0000     0.0010     2.3950 ca         1 X2O      -0.126000
      6 CAT         -0.6910    -0.0000     1.1970 ca         1 X2O      -0.080300
      7 CAX         -2.1990    -0.0000     1.1970 c3         1 X2O       0.174700
      8 SAR         -2.8030    -1.6000     1.8030 ss         1 X2O      -0.414200
      9 CB          -2.2400    -1.6220     3.5280 c3         1 X2O       0.001700
     10 CA          -2.8110    -2.8540     4.2340 c3         1 X2O       0.002500
     11 C           -2.3430    -2.8730     5.6660 c          1 X2O       0.866600
     12 OXT         -1.1100    -3.3140     5.9640 o          1 X2O      -0.771800
     13 O           -3.0770    -2.4910     6.5460 o          1 X2O      -0.771800
     14 N           -4.2780    -2.8030     4.1980 nz         1 X2O      -0.790600
     15 CAW         -2.7080     1.1160     2.1100 c3         1 X2O      -0.071700
     16 CAB         -4.2290     1.2270     1.9800 c3         1 X2O      -0.098100
     17 CAP         -2.0630     2.4430     1.7030 c3         1 X2O      -0.099400
     18 CAA         -2.5280     3.5490     2.6530 c3         1 X2O      -0.093100
     19 CAU         -2.7010     0.2280    -0.2050 ca         1 X2O      -0.080300
     20 CAN         -2.4540    -0.7100    -1.1890 ca         1 X2O      -0.126000
     21 CAJ         -2.9150    -0.5020    -2.4750 ca         1 X2O      -0.126000
     22 CAG         -3.6230     0.6470    -2.7780 ca         1 X2O      -0.120500
     23 CAK         -3.8700     1.5860    -1.7930 ca         1 X2O      -0.126000
     24 CAO         -3.4130     1.3750    -0.5060 ca         1 X2O      -0.126000
     25 HAL         -0.5420    -0.0000    -0.9380 ha         1 X2O       0.149500
     26 HAH          1.9240     0.0000    -0.9380 ha         1 X2O       0.135250
     27 HAF          3.1570    -0.0000     1.1970 ha         1 X2O       0.133500
     28 HAI          1.9240     0.0000     3.3320 ha         1 X2O       0.135250
     29 HAM         -0.5410     0.0010     3.3330 ha         1 X2O       0.149500
     30 HAW         -2.4490     0.8890     3.1380 hc         1 X2O       0.057700
     31 HB1C        -1.1570    -1.6610     3.5530 h1         1 X2O       0.103700
     32 HB2C        -2.5810    -0.7260     4.0310 h1         1 X2O       0.103700
     33 HA          -2.4680    -3.7500     3.7310 hx         1 X2O       0.116700
     34 HN1         -4.5840    -1.8670     4.3770 hn         1 X2O       0.443800
     35 HN2         -4.6500    -3.4150     4.8970 hn         1 X2O       0.443800
     36 HAB1        -4.4980     2.2500     1.7460 hc         1 X2O       0.041700
     37 HAB2        -4.6930     0.9380     2.9150 hc         1 X2O       0.041700
     38 HAB3        -4.5730     0.5730     1.1890 hc         1 X2O       0.041700
     39 HAP1        -0.9850     2.3510     1.7560 hc         1 X2O       0.062700
     40 HAP2        -2.3550     2.6900     0.6900 hc         1 X2O       0.062700
     41 HAA1        -1.7740     4.3250     2.6990 hc         1 X2O       0.036033
     42 HAA2        -2.6810     3.1350     3.6420 hc         1 X2O       0.036033
     43 HAA3        -3.4580     3.9700     2.2900 hc         1 X2O       0.036033
     44 HAN         -1.9000    -1.6100    -0.9520 ha         1 X2O       0.149500
     45 HAO         -3.6070     2.1110     0.2650 ha         1 X2O       0.149500
     46 HAJ         -2.7210    -1.2370    -3.2460 ha         1 X2O       0.135250
     47 HAG         -3.9820     0.8120    -3.7860 ha         1 X2O       0.133500
     48 HAK         -4.4260     2.4850    -2.0300 ha         1 X2O       0.135250
     49 HN3         -4.5990    -3.0850     3.2930 hn         1 X2O       0.443800
@<TRIPOS>BOND
     1     1     2 ar
     2     1     6 ar
     3     2     3 ar
     4     3     4 ar
     5     4     5 ar
     6     5     6 ar
     7     6     7 1
     8     7     8 1
     9     7    15 1
    10     7    19 1
    11     8     9 1
    12     9    10 1
    13    10    11 1
    14    10    14 1
    15    11    12 1
    16    11    13 1
    17    15    16 1
    18    15    17 1
    19    17    18 1
    20    19    20 ar
    21    19    24 ar
    22    20    21 ar
    23    21    22 ar
    24    22    23 ar
    25    23    24 ar
    26     1    25 1
    27     2    26 1
    28     3    27 1
    29     4    28 1
    30     5    29 1
    31    15    30 1
    32     9    31 1
    33     9    32 1
    34    10    33 1
    35    14    34 1
    36    14    35 1
    37    16    36 1
    38    16    37 1
    39    16    38 1
    40    17    39 1
    41    17    40 1
    42    18    41 1
    43    18    42 1
    44    18    43 1
    45    20    44 1
    46    24    45 1
    47    21    46 1
    48    22    47 1
    49    23    48 1
    50    49    14 1
@<TRIPOS>SUBSTRUCTURE
     1 X2O         1 TEMP              0 ****  ****    0 ROOT
