@<TRIPOS>MOLECULE
X2O
   49    50     1     0     0
SMALL
bcc


@<TRIPOS>ATOM
      1 CAL          0.0000     0.0000     0.0000 ca         1 X2O      -0.120250
      2 CAH          1.3820     0.0000     0.0000 ca         1 X2O      -0.091250
      3 CAF          2.0740     0.0000     1.1970 ca         1 X2O      -0.093500
      4 CAI          1.3820    -0.0000     2.3940 ca         1 X2O      -0.091250
      5 CAM          0.0000     0.0010     2.3950 ca         1 X2O      -0.120250
      6 CAT         -0.6910    -0.0000     1.1970 ca         1 X2O      -0.083800
      7 CAX         -2.1990    -0.0000     1.1970 c3         1 X2O       0.214700
      8 SAR         -2.8030    -1.6000     1.8030 ss         1 X2O      -0.447200
      9 CB          -2.2400    -1.6220     3.5280 c3         1 X2O       0.048700
     10 CA          -2.8110    -2.8540     4.2340 c3         1 X2O      -0.172500
     11 C           -2.3430    -2.8730     5.6660 c          1 X2O       0.951600
     12 OXT         -1.1100    -3.3140     5.9640 o          1 X2O      -0.814800
     13 O           -3.0770    -2.4910     6.5460 o          1 X2O      -0.814800
     14 N           -4.2780    -2.8030     4.1980 nz         1 X2O       0.076400
     15 CAW         -2.7080     1.1160     2.1100 c3         1 X2O      -0.058700
     16 CAB         -4.2290     1.2270     1.9800 c3         1 X2O      -0.036100
     17 CAP         -2.0630     2.4430     1.7030 c3         1 X2O      -0.075400
     18 CAA         -2.5280     3.5490     2.6530 c3         1 X2O       0.003900
     19 CAU         -2.7010     0.2280    -0.2050 ca         1 X2O      -0.083800
     20 CAN         -2.4540    -0.7100    -1.1890 ca         1 X2O      -0.120250
     21 CAJ         -2.9150    -0.5020    -2.4750 ca         1 X2O      -0.091250
     22 CAG         -3.6230     0.6470    -2.7780 ca         1 X2O      -0.093500
     23 CAK         -3.8700     1.5860    -1.7930 ca         1 X2O      -0.091250
     24 CAO         -3.4130     1.3750    -0.5060 ca         1 X2O      -0.120250
     25 HAL         -0.5420    -0.0000    -0.9380 ha         1 X2O       0.137750
     26 HAH          1.9240     0.0000    -0.9380 ha         1 X2O       0.107500
     27 HAF          3.1570    -0.0000     1.1970 ha         1 X2O       0.105500
     28 HAI          1.9240     0.0000     3.3320 ha         1 X2O       0.107500
     29 HAM         -0.5410     0.0010     3.3330 ha         1 X2O       0.137750
     30 HAW         -2.4490     0.8890     3.1380 hc         1 X2O       0.043700
     31 HB1C        -1.1570    -1.6610     3.5530 h1         1 X2O       0.085200
     32 HB2C        -2.5810    -0.7260     4.0310 h1         1 X2O       0.085200
     33 HA          -2.4680    -3.7500     3.7310 hx         1 X2O       0.098700
     34 HN1         -4.5840    -1.8670     4.3770 hn         1 X2O       0.217467
     35 HN2         -4.6500    -3.4150     4.8970 hn         1 X2O       0.217467
     36 HAB1        -4.4980     2.2500     1.7460 hc         1 X2O       0.020700
     37 HAB2        -4.6930     0.9380     2.9150 hc         1 X2O       0.020700
     38 HAB3        -4.5730     0.5730     1.1890 hc         1 X2O       0.020700
     39 HAP1        -0.9850     2.3510     1.7560 hc         1 X2O       0.045200
     40 HAP2        -2.3550     2.6900     0.6900 hc         1 X2O       0.045200
     41 HAA1        -1.7740     4.3250     2.6990 hc         1 X2O       0.004700
     42 HAA2        -2.6810     3.1350     3.6420 hc         1 X2O       0.004700
     43 HAA3        -3.4580     3.9700     2.2900 hc         1 X2O       0.004700
     44 HAN         -1.9000    -1.6100    -0.9520 ha         1 X2O       0.137750
     45 HAO         -3.6070     2.1110     0.2650 ha         1 X2O       0.137750
     46 HAJ         -2.7210    -1.2370    -3.2460 ha         1 X2O       0.107500
     47 HAG         -3.9820     0.8120    -3.7860 ha         1 X2O       0.105500
     48 HAK         -4.4260     2.4850    -2.0300 ha         1 X2O       0.107500
     49 HN3         -4.5990    -3.0850     3.2930 hn         1 X2O       0.217467
@<TRIPOS>BOND
     1     1     2 ar  
     2     1     6 ar  
     3     1    25 1   
     4     2     3 ar  
     5     2    26 1   
     6     3     4 ar  
     7     3    27 1   
     8     4     5 ar  
     9     4    28 1   
    10     5     6 ar  
    11     5    29 1   
    12     6     7 1   
    13     7     8 1   
    14     7    15 1   
    15     7    19 1   
    16     8     9 1   
    17     9    10 1   
    18     9    31 1   
    19     9    32 1   
    20    10    11 1   
    21    10    14 1   
    22    10    33 1   
    23    11    12 1   
    24    11    13 1   
    25    14    34 1   
    26    14    35 1   
    27    14    49 1   
    28    15    16 1   
    29    15    17 1   
    30    15    30 1   
    31    16    36 1   
    32    16    37 1   
    33    16    38 1   
    34    17    18 1   
    35    17    39 1   
    36    17    40 1   
    37    18    41 1   
    38    18    42 1   
    39    18    43 1   
    40    19    20 ar  
    41    19    24 ar  
    42    20    21 ar  
    43    20    44 1   
    44    21    22 ar  
    45    21    46 1   
    46    22    23 ar  
    47    22    47 1   
    48    23    24 ar  
    49    23    48 1   
    50    24    45 1   
@<TRIPOS>SUBSTRUCTURE
     1 X2O         1 TEMP              0 ****  ****    0 ROOT
