@<TRIPOS>MOLECULE
X2P
   60    65     1     0     0
SMALL
bcc


@<TRIPOS>ATOM
      1 N1           0.0000     0.0000     0.0000 n          1 X2P       0.110000
      2 C4           3.5830     0.0380    -1.1570 c3         1 X2P       0.003800
      3 C5           1.3780     0.0000     0.0000 cc         1 X2P      -0.245600
      4 C6          -0.6980     0.0250    -1.1520 c          1 X2P       0.573700
      5 C7           0.0190     0.0120    -2.4350 cc         1 X2P       0.118900
      6 C8          -0.4240    -0.0250     1.3980 c3         1 X2P       0.103800
      7 C10          0.8160    -0.0200     3.6900 c3         1 X2P       0.042000
      8 C13         -1.2800    -1.2750     1.6850 c3         1 X2P      -0.060400
      9 C15         -2.4140     0.6400     2.6890 cx         1 X2P      -0.121700
     10 C17         -1.3950     1.6800     3.1610 cx         1 X2P      -0.058400
     11 C20          5.3280    -2.4450    -5.2650 ca         1 X2P      -0.070000
     12 C21          5.3440    -3.6500    -5.9430 ca         1 X2P      -0.130000
     13 C22          4.3810    -3.9160    -6.9020 ca         1 X2P       0.113900
     14 C24          3.3890    -1.7720    -6.5010 ca         1 X2P      -0.047000
     15 F            4.3960    -5.0930    -7.5650 f          1 X2P      -0.121900
     16 C23          3.4020    -2.9750    -7.1800 ca         1 X2P      -0.077600
     17 Cl           2.1990    -3.3050    -8.3870 cl         1 X2P       0.009600
     18 C19          4.3480    -1.5090    -5.5400 ca         1 X2P      -0.130300
     19 N            3.5120    -0.3260    -3.5940 n          1 X2P      -0.149800
     20 C1           2.1950    -0.0510    -3.6570 c          1 X2P       0.659700
     21 O4           1.6630     0.1670    -4.7290 o          1 X2P      -0.666500
     22 C2           1.4020    -0.0200    -2.4100 cd         1 X2P      -0.165200
     23 O           -0.6540     0.0300    -3.6090 oh         1 X2P      -0.427100
     24 O1          -1.9160     0.0580    -1.1290 o          1 X2P      -0.689500
     25 C16         -1.3370     1.1660     1.7200 cx         1 X2P      -0.170700
     26 C14         -2.0970    -0.8500     2.9310 c3         1 X2P       0.007600
     27 N2           0.7760    -0.0140     2.2260 n          1 X2P      -0.147800
     28 C11          1.4910    -1.3030     4.1780 c3         1 X2P       0.160100
     29 O3           2.8580    -1.3100     3.7620 oh         1 X2P      -0.556800
     30 C12          1.4220    -1.3690     5.7040 c3         1 X2P      -0.035100
     31 C9           1.8420     0.0000     1.4020 c          1 X2P       0.650700
     32 O2           3.0050     0.0120     1.7570 o          1 X2P      -0.612500
     33 C3           2.0770     0.0000    -1.1690 cd         1 X2P      -0.038200
     34 C            4.1360    -0.7500    -2.3420 c3         1 X2P       0.057000
     35 H1           3.9170     1.0660    -1.2240 hc         1 X2P       0.051700
     36 H2           3.9450    -0.4030    -0.2350 hc         1 X2P       0.051700
     37 H3           1.3770     0.8380     4.0390 h1         1 X2P       0.056700
     38 H4          -0.1940     0.0270     4.0790 h1         1 X2P       0.056700
     39 H5          -1.9380    -1.4870     0.8510 hc         1 X2P       0.047200
     40 H6          -0.6500    -2.1260     1.9130 hc         1 X2P       0.047200
     41 H7          -3.4120     0.9610     2.4160 hc         1 X2P       0.075700
     42 H8          -1.7770     2.6860     3.2830 hc         1 X2P       0.063700
     43 H9          -0.6210     1.3080     3.8210 hc         1 X2P       0.063700
     44 H10          6.0800    -2.2370    -4.5140 ha         1 X2P       0.107000
     45 H11          6.1110    -4.3830    -5.7280 ha         1 X2P       0.121000
     46 H12          2.6240    -1.0370    -6.7170 ha         1 X2P       0.146000
     47 H13          3.9190     0.5740    -5.4380 h1         1 X2P       0.035700
     48 H14          5.3450     0.0720    -4.5200 h1         1 X2P       0.035700
     49 H15         -1.2140     0.7880    -3.6390 ho         1 X2P       0.417000
     50 H16         -1.7580     1.7710     0.9250 hc         1 X2P       0.094700
     51 H17         -3.0130    -1.4250     2.9960 hc         1 X2P       0.024700
     52 H18         -1.5040    -0.9680     3.8300 hc         1 X2P       0.024700
     53 H19          0.9820    -2.1610     3.7560 h1         1 X2P       0.006700
     54 H20          3.3190    -2.0010     4.2080 ho         1 X2P       0.387000
     55 H21          0.3860    -1.3470     6.0200 hc         1 X2P       0.012367
     56 H22          1.8850    -2.2860     6.0480 hc         1 X2P       0.012367
     57 H23          1.9460    -0.5200     6.1270 hc         1 X2P       0.012367
     58 H24          5.2050    -0.5870    -2.4070 h1         1 X2P       0.021700
     59 H25          3.9400    -1.8040    -2.1890 h1         1 X2P       0.021700
     60 C18          4.3340    -0.1970    -4.7990 c3         1 X2P       0.117300
@<TRIPOS>BOND
     1     1     3 1   
     2     1     4 1   
     3     1     6 1   
     4     2    33 1   
     5     2    34 1   
     6     2    35 1   
     7     2    36 1   
     8     3    31 1   
     9     3    33 2   
    10     4     5 1   
    11     4    24 2   
    12     5    22 2   
    13     5    23 1   
    14     6     8 1   
    15     6    25 1   
    16     6    27 1   
    17     7    27 1   
    18     7    28 1   
    19     7    37 1   
    20     7    38 1   
    21     8    26 1   
    22     8    39 1   
    23     8    40 1   
    24     9    10 1   
    25     9    25 1   
    26     9    26 1   
    27     9    41 1   
    28    10    25 1   
    29    10    42 1   
    30    10    43 1   
    31    11    12 ar  
    32    11    18 ar  
    33    11    44 1   
    34    12    13 ar  
    35    12    45 1   
    36    13    15 1   
    37    13    16 ar  
    38    14    16 ar  
    39    14    18 ar  
    40    14    46 1   
    41    16    17 1   
    42    18    60 1   
    43    19    20 1   
    44    19    34 1   
    45    19    60 1   
    46    20    21 2   
    47    20    22 1   
    48    22    33 1   
    49    23    49 1   
    50    25    50 1   
    51    26    51 1   
    52    26    52 1   
    53    27    31 1   
    54    28    29 1   
    55    28    30 1   
    56    28    53 1   
    57    29    54 1   
    58    30    55 1   
    59    30    56 1   
    60    30    57 1   
    61    31    32 2   
    62    34    58 1   
    63    34    59 1   
    64    47    60 1   
    65    48    60 1   
@<TRIPOS>SUBSTRUCTURE
     1 X2P         1 TEMP              0 ****  ****    0 ROOT
