@<TRIPOS>MOLECULE
molecule
   60    65     1     0     0
SMALL
bcc


@<TRIPOS>ATOM
      1 N1           0.0000     0.0000     0.0000 n          1 X2P      -0.323000
      2 C4           3.5830     0.0380    -1.1570 c3         1 X2P      -0.052200
      3 C5           1.3780     0.0000     0.0000 cc         1 X2P      -0.068600
      4 C6          -0.6980     0.0250    -1.1520 c          1 X2P       0.673700
      5 C7           0.0190     0.0120    -2.4350 cc         1 X2P       0.085900
      6 C8          -0.4240    -0.0250     1.3980 c3         1 X2P       0.320800
      7 C10          0.8160    -0.0200     3.6900 c3         1 X2P       0.132000
      8 C13         -1.2800    -1.2750     1.6850 c3         1 X2P      -0.099400
      9 C15         -2.4140     0.6400     2.6890 cx         1 X2P      -0.148700
     10 C17         -1.3950     1.6800     3.1610 cx         1 X2P      -0.106400
     11 C20          5.3280    -2.4450    -5.2650 ca         1 X2P      -0.096000
     12 C21          5.3440    -3.6500    -5.9430 ca         1 X2P      -0.166000
     13 C22          4.3810    -3.9160    -6.9020 ca         1 X2P       0.144900
     14 C24          3.3890    -1.7720    -6.5010 ca         1 X2P      -0.069000
     15 F            4.3960    -5.0930    -7.5650 f          1 X2P      -0.128900
     16 C23          3.4020    -2.9750    -7.1800 ca         1 X2P      -0.016600
     17 Cl           2.1990    -3.3050    -8.3870 cl         1 X2P      -0.082400
     18 C19          4.3480    -1.5090    -5.5400 ca         1 X2P      -0.123300
     19 N            3.5120    -0.3260    -3.5940 n          1 X2P      -0.485800
     20 C1           2.1950    -0.0510    -3.6570 c          1 X2P       0.721700
     21 O4           1.6630     0.1670    -4.7290 o          1 X2P      -0.620500
     22 C2           1.4020    -0.0200    -2.4100 cd         1 X2P      -0.121200
     23 O           -0.6540     0.0300    -3.6090 oh         1 X2P      -0.446100
     24 O1          -1.9160     0.0580    -1.1290 o          1 X2P      -0.636500
     25 C16         -1.3370     1.1660     1.7200 cx         1 X2P      -0.171700
     26 C14         -2.0970    -0.8500     2.9310 c3         1 X2P      -0.056400
     27 N2           0.7760    -0.0140     2.2260 n          1 X2P      -0.489800
     28 C11          1.4910    -1.3030     4.1780 c3         1 X2P       0.117100
     29 O3           2.8580    -1.3100     3.7620 oh         1 X2P      -0.576800
     30 C12          1.4220    -1.3690     5.7040 c3         1 X2P      -0.133100
     31 C9           1.8420     0.0000     1.4020 c          1 X2P       0.710700
     32 O2           3.0050     0.0120     1.7570 o          1 X2P      -0.571500
     33 C3           2.0770     0.0000    -1.1690 cd         1 X2P      -0.069200
     34 C            4.1360    -0.7500    -2.3420 c3         1 X2P       0.108000
     35 H1           3.9170     1.0660    -1.2240 hc         1 X2P       0.082700
     36 H2           3.9450    -0.4030    -0.2350 hc         1 X2P       0.082700
     37 H3           1.3770     0.8380     4.0390 h1         1 X2P       0.077700
     38 H4          -0.1940     0.0270     4.0790 h1         1 X2P       0.077700
     39 H5          -1.9380    -1.4870     0.8510 hc         1 X2P       0.076200
     40 H6          -0.6500    -2.1260     1.9130 hc         1 X2P       0.076200
     41 H7          -3.4120     0.9610     2.4160 hc         1 X2P       0.101700
     42 H8          -1.7770     2.6860     3.2830 hc         1 X2P       0.087200
     43 H9          -0.6210     1.3080     3.8210 hc         1 X2P       0.087200
     44 H10          6.0800    -2.2370    -4.5140 ha         1 X2P       0.135000
     45 H11          6.1110    -4.3830    -5.7280 ha         1 X2P       0.150000
     46 H12          2.6240    -1.0370    -6.7170 ha         1 X2P       0.175000
     47 H13          3.9190     0.5740    -5.4380 h1         1 X2P       0.067200
     48 H14          5.3450     0.0720    -4.5200 h1         1 X2P       0.067200
     49 H15         -1.2140     0.7880    -3.6390 ho         1 X2P       0.438000
     50 H16         -1.7580     1.7710     0.9250 hc         1 X2P       0.115700
     51 H17         -3.0130    -1.4250     2.9960 hc         1 X2P       0.053200
     52 H18         -1.5040    -0.9680     3.8300 hc         1 X2P       0.053200
     53 H19          0.9820    -2.1610     3.7560 h1         1 X2P       0.037700
     54 H20          3.3190    -2.0010     4.2080 ho         1 X2P       0.399000
     55 H21          0.3860    -1.3470     6.0200 hc         1 X2P       0.045700
     56 H22          1.8850    -2.2860     6.0480 hc         1 X2P       0.045700
     57 H23          1.9460    -0.5200     6.1270 hc         1 X2P       0.045700
     58 H24          5.2050    -0.5870    -2.4070 h1         1 X2P       0.051700
     59 H25          3.9400    -1.8040    -2.1890 h1         1 X2P       0.051700
     60 C18          4.3340    -0.1970    -4.7990 c3         1 X2P       0.162300
@<TRIPOS>BOND
     1    23     5 1
     2    24     4 2
     3    26     9 1
     4    26     8 1
     5     9    10 1
     6     9    25 1
     7     4     5 1
     8     4     1 1
     9     5    22 2
    10    21    20 2
    11    17    16 1
    12    10    25 1
    13    25     6 1
    14     8     6 1
    15     1     6 1
    16     1     3 1
    17    20    22 1
    18    20    19 1
    19    22    33 1
    20     6    27 1
    21    14    16 ar
    22    14    18 ar
    23    16    13 ar
    24     3    33 2
    25     3    31 1
    26    19    60 1
    27    19    34 1
    28    33     2 1
    29    60    18 1
    30    18    11 ar
    31    27    31 1
    32    27     7 1
    33    13    15 1
    34    13    12 ar
    35    31    32 2
    36    34     2 1
    37     7    28 1
    38    29    28 1
    39    11    12 ar
    40    28    30 1
    41     2    35 1
    42     2    36 1
    43     7    37 1
    44     7    38 1
    45     8    39 1
    46     8    40 1
    47     9    41 1
    48    10    42 1
    49    10    43 1
    50    11    44 1
    51    12    45 1
    52    14    46 1
    53    60    47 1
    54    60    48 1
    55    23    49 1
    56    25    50 1
    57    26    51 1
    58    26    52 1
    59    28    53 1
    60    29    54 1
    61    30    55 1
    62    30    56 1
    63    30    57 1
    64    34    58 1
    65    34    59 1
@<TRIPOS>SUBSTRUCTURE
     1 X2P         1 TEMP              0 ****  ****    0 ROOT
