@<TRIPOS>MOLECULE
X2X
   16    15     1     0     0
SMALL
bcc


@<TRIPOS>ATOM
      1 OAD         0.3450   -0.0690   -0.2140 o         1 X2X     -0.815300
      2 CAH         1.4000    0.4090    0.2650 c         1 X2X      0.905600
      3 OAE         2.0340    1.4070   -0.1880 o         1 X2X     -0.815300
      4 CAI         2.0330   -0.2560    1.5450 c3        1 X2X     -0.077200
      5 CAB         1.9010   -1.7640    1.4900 c3        1 X2X     -0.061100
      6 OAF         3.4190    0.0640    1.6270 oh        1 X2X     -0.633800
      7 CAG         1.3480    0.3310    2.7680 c         1 X2X      0.586100
      8 OAC         0.5800   -0.3090    3.4980 o         1 X2X     -0.585100
      9 CAA         1.6660    1.7710    3.0260 c3        1 X2X     -0.208100
     10 H2          0.8300   -2.0190    1.2990 hc        1 X2X      0.034033
     11 H3          2.5310   -2.1660    0.6630 hc        1 X2X      0.034033
     12 H4          2.2270   -2.2230    2.4530 hc        1 X2X      0.034033
     13 H5          3.5690    0.8170    1.0320 ho        1 X2X      0.426000
     14 H6          1.5670    2.3390    2.0660 hc        1 X2X      0.058700
     15 H7          2.7270    1.8450    3.3700 hc        1 X2X      0.058700
     16 H8          0.9930    2.2060    3.8000 hc        1 X2X      0.058700
@<TRIPOS>BOND
     1    1    2 1   
     2    2    3 1   
     3    2    4 1   
     4    4    5 1   
     5    4    6 1   
     6    4    7 1   
     7    5   10 1   
     8    5   11 1   
     9    5   12 1   
    10    6   13 1   
    11    7    8 2   
    12    7    9 1   
    13    9   14 1   
    14    9   15 1   
    15    9   16 1   
@<TRIPOS>SUBSTRUCTURE
     1 X2X         1 TEMP              0 ****  ****    0 ROOT
