@<TRIPOS>MOLECULE
molecule
   16    15     1     0     0
SMALL
bcc


@<TRIPOS>ATOM
      1 OAD          0.0000     0.0000     0.0000 o          1 X2X      -0.817800
      2 CAH          1.2080     0.0000     0.0000 c          1 X2X       0.865600
      3 OAE          1.8800     0.0060    -1.1620 o          1 X2X      -0.817800
      4 CAI          1.9610     0.0000     1.3060 c3         1 X2X      -0.045200
      5 CAB          2.3250    -1.4370     1.6850 c3         1 X2X      -0.061100
      6 OAF          3.1550     0.7730     1.1670 oh         1 X2X      -0.624800
      7 CAG          1.0960     0.6000     2.3840 c          1 X2X       0.545100
      8 OAC         -0.1050     0.4940     2.3230 o          1 X2X      -0.495100
      9 CAA          1.7310     1.3330     3.5390 c3         1 X2X      -0.195100
     10 H2           2.8270    -1.9140     0.8520 hc         1 X2X       0.033367
     11 H3           1.4230    -1.9870     1.9250 hc         1 X2X       0.033367
     12 H4           2.9830    -1.4280     2.5450 hc         1 X2X       0.033367
     13 H5           3.0540     1.3830     0.4560 ho         1 X2X       0.419000
     14 H6           2.6880     0.8820     3.7700 hc         1 X2X       0.042367
     15 H7           1.8760     2.3720     3.2700 hc         1 X2X       0.042367
     16 H8           1.0830     1.2710     4.4050 hc         1 X2X       0.042367
@<TRIPOS>BOND
     1     6     4 1
     2     5     4 1
     3     4     2 1
     4     4     7 1
     5     1     2 1
     6     2     3 1
     7     7     9 1
     8     7     8 2
     9     5    10 1
    10     5    11 1
    11     5    12 1
    12     6    13 1
    13     9    14 1
    14     9    15 1
    15     9    16 1
@<TRIPOS>SUBSTRUCTURE
     1 X2X         1 TEMP              0 ****  ****    0 ROOT
