@<TRIPOS>MOLECULE
X30
   83    88     1     0     0
SMALL
bcc


@<TRIPOS>ATOM
      1 N            0.0000     0.0000     0.0000 n3         1 X30      -0.550600
      2 C           -0.5260     0.0760    -1.3700 c3         1 X30       0.189100
      3 O            5.3490    -3.4330     6.1350 o          1 X30      -0.653100
      4 C1           1.4700     0.0000     0.0000 c3         1 X30       0.155800
      5 C10          4.1380    -3.4350     6.2470 c          1 X30       0.613700
      6 C11          3.4740    -4.4680     7.0650 ca         1 X30      -0.125600
      7 C12          4.0140    -5.7550     7.1410 ca         1 X30      -0.131000
      8 C13          3.3940    -6.7170     7.9130 ca         1 X30       0.111100
      9 C14          2.2280    -6.4020     8.6150 ca         1 X30      -0.018400
     10 C15          1.6930    -5.1220     8.5390 ca         1 X30      -0.089000
     11 C16          2.3080    -4.1590     7.7700 ca         1 X30      -0.127000
     12 C17          0.2230    -7.3590     9.5440 ca         1 X30       0.702900
     13 C18         -1.8140    -6.4600     8.9450 ca         1 X30       0.471200
     14 C19         -2.4510    -7.3440     9.8060 ca         1 X30      -0.398000
     15 C2           1.9770     0.0000     1.4440 c3         1 X30       0.141800
     16 C20         -1.6620    -8.2250    10.5480 ca         1 X30       0.582200
     17 C21         -2.9370    -8.5270    12.5550 ca         1 X30       0.061600
     18 C22         -2.5150    -8.7740    13.8550 ca         1 X30      -0.132000
     19 C23         -3.1880    -8.2070    14.9190 ca         1 X30      -0.066000
     20 C24         -4.2810    -7.3890    14.6990 ca         1 X30      -0.122000
     21 C25         -4.7210    -7.1420    13.4160 ca         1 X30      -0.025000
     22 C26         -4.0600    -7.7220    12.3280 ca         1 X30      -0.159600
     23 C27         -4.5800    -7.5200    10.9650 c          1 X30       0.626100
     24 C3          -0.0170    -1.1800     2.1450 c3         1 X30       0.141800
     25 C31         -0.8480   -10.9990    12.0750 c3         1 X30      -0.034100
     26 C4          -0.5240    -1.1800     0.7010 c3         1 X30       0.155800
     27 C5           1.9790    -1.2560     3.5150 c3         1 X30       0.131500
     28 C6           1.4110    -2.4950     4.2110 c3         1 X30      -0.052400
     29 C7           1.9340    -2.5520     5.6500 c3         1 X30       0.028000
     30 C8           4.0520    -1.3930     4.9000 c3         1 X30       0.028000
     31 C9           3.5050    -1.3480     3.4700 c3         1 X30      -0.052400
     32 N1           1.4530    -1.1800     2.1450 n3         1 X30      -0.538600
     33 N2           3.4020    -2.4950     5.6220 n          1 X30      -0.142800
     34 N3           1.6020    -7.3740     9.3940 nu         1 X30      -0.262300
     35 N4          -0.4940    -6.4950     8.8430 nb         1 X30      -0.683000
     36 N5          -0.3440    -8.2150    10.3840 nb         1 X30      -0.684000
     37 N6          -2.2370    -9.0740    11.4850 na         1 X30      -0.379700
     38 N7          -3.8430    -7.3620     9.8760 n          1 X30       0.057000
     39 O1          -5.7890    -7.4980    10.8290 o          1 X30      -0.688500
     40 O2           3.9170    -7.9690     7.9890 os         1 X30      -0.316900
     41 H2          -0.1510     0.9710    -1.8510 h1         1 X30       0.000367
     42 H1          -1.6080     0.1090    -1.3390 h1         1 X30       0.000367
     43 H           -0.2070    -0.7960    -1.9280 h1         1 X30       0.000367
     44 H4           1.8300    -0.8860    -0.5080 h1         1 X30       0.013950
     45 H3           1.8300     0.8860    -0.5080 h1         1 X30       0.013950
     46 H20          4.9190    -5.9970     6.5960 ha         1 X30       0.140000
     47 H21          0.7880    -4.8810     9.0840 ha         1 X30       0.140000
     48 H22          1.8880    -3.1620     7.7130 ha         1 X30       0.126000
     49 H24         -2.3890    -5.7480     8.3660 h4         1 X30      -0.006900
     50 H5           3.0600    -0.0320     1.4460 h1         1 X30       0.018950
     51 H6           1.6360     0.8980     1.9460 h1         1 X30       0.018950
     52 H25         -1.6590    -9.4140    14.0340 ha         1 X30       0.121000
     53 H26         -2.8500    -8.3950    15.9320 ha         1 X30       0.103000
     54 H27         -4.8030    -6.9480    15.5400 ha         1 X30       0.107000
     55 H28         -5.5770    -6.5000    13.2510 ha         1 X30       0.120000
     56 H30         -3.9240    -7.4740     7.7880 h1         1 X30       0.022700
     57 H31         -4.8520    -6.1480     8.5030 h1         1 X30       0.022700
     58 H29         -5.4520    -7.8080     8.6150 h1         1 X30       0.022700
     59 H32         -2.9770   -11.0090    11.7790 h1         1 X30       0.022700
     60 H33         -2.0370   -10.7850    10.2970 h1         1 X30       0.022700
     61 H8          -0.3780    -2.0660     2.6530 h1         1 X30       0.018950
     62 H7          -0.3780    -0.2940     2.6530 h1         1 X30       0.018950
     63 H36          5.8960    -7.5590     7.5870 h1         1 X30       0.001700
     64 H35          5.4160    -9.2500     7.3900 h1         1 X30       0.001700
     65 H37          4.9230    -8.0460     6.1920 h1         1 X30       0.001700
     66 H311        -0.2800   -10.1390    12.4070 hc         1 X30       0.013700
     67 H313        -1.1230   -11.6030    12.9320 hc         1 X30       0.013700
     68 H312        -0.2460   -11.5900    11.3960 hc         1 X30       0.013700
     69 H9          -0.1830    -2.0780     0.1990 h1         1 X30       0.013950
     70 H10         -1.6070    -1.1480     0.6990 h1         1 X30       0.013950
     71 H11          1.6890    -0.3700     4.0670 h1         1 X30       0.011700
     72 H13          0.3290    -2.4380     4.2230 hc         1 X30       0.033950
     73 H12          1.7250    -3.3840     3.6780 hc         1 X30       0.033950
     74 H15          1.5480    -1.7080     6.2090 h1         1 X30       0.039450
     75 H14          1.6160    -3.4780     6.1140 h1         1 X30       0.039450
     76 H17          3.8360    -0.4560     5.3990 h1         1 X30       0.039450
     77 H16          5.1220    -1.5580     4.8740 h1         1 X30       0.039450
     78 H18          3.7960    -2.2500     2.9450 hc         1 X30       0.033950
     79 H19          3.9040    -0.4810     2.9590 hc         1 X30       0.033950
     80 H23          2.1500    -8.0600     9.8740 hn         1 X30       0.302800
     81 C28         -4.5650    -7.1860     8.6130 c3         1 X30       0.046300
     82 C29         -2.1090   -10.5270    11.3470 c3         1 X30       0.191800
     83 C30          5.1100    -8.2210     7.2440 c3         1 X30       0.246700
@<TRIPOS>BOND
     1     1     2 1   
     2     1     4 1   
     3     1    26 1   
     4     2    41 1   
     5     2    42 1   
     6     2    43 1   
     7     3     5 2   
     8     4    15 1   
     9     4    44 1   
    10     4    45 1   
    11     5     6 1   
    12     5    33 1   
    13     6     7 ar  
    14     6    11 ar  
    15     7     8 ar  
    16     7    46 1   
    17     8     9 ar  
    18     8    40 1   
    19     9    10 ar  
    20     9    34 1   
    21    10    11 ar  
    22    10    47 1   
    23    11    48 1   
    24    12    34 1   
    25    12    35 ar  
    26    12    36 ar  
    27    13    14 ar  
    28    13    35 ar  
    29    13    49 1   
    30    14    16 ar  
    31    14    38 1   
    32    15    32 1   
    33    15    50 1   
    34    15    51 1   
    35    16    36 ar  
    36    16    37 1   
    37    17    18 ar  
    38    17    22 ar  
    39    17    37 1   
    40    18    19 ar  
    41    18    52 1   
    42    19    20 ar  
    43    19    53 1   
    44    20    21 ar  
    45    20    54 1   
    46    21    22 ar  
    47    21    55 1   
    48    22    23 1   
    49    23    38 1   
    50    23    39 2   
    51    24    26 1   
    52    24    32 1   
    53    24    61 1   
    54    24    62 1   
    55    25    66 1   
    56    25    67 1   
    57    25    68 1   
    58    25    82 1   
    59    26    69 1   
    60    26    70 1   
    61    27    28 1   
    62    27    31 1   
    63    27    32 1   
    64    27    71 1   
    65    28    29 1   
    66    28    72 1   
    67    28    73 1   
    68    29    33 1   
    69    29    74 1   
    70    29    75 1   
    71    30    31 1   
    72    30    33 1   
    73    30    76 1   
    74    30    77 1   
    75    31    78 1   
    76    31    79 1   
    77    34    80 1   
    78    37    82 1   
    79    38    81 1   
    80    40    83 1   
    81    56    81 1   
    82    57    81 1   
    83    58    81 1   
    84    59    82 1   
    85    60    82 1   
    86    63    83 1   
    87    64    83 1   
    88    65    83 1   
@<TRIPOS>SUBSTRUCTURE
     1 X30         1 TEMP              0 ****  ****    0 ROOT
