@<TRIPOS>MOLECULE
molecule
   30    31     1     0     0
SMALL
bcc


@<TRIPOS>ATOM
      1 N1           0.0000     0.0000     0.0000 nc         1 X35      -0.820000
      2 C2           1.3120     0.0000     0.0000 cc         1 X35       0.777200
      3 N3           2.0720    -0.0010    -1.1580 nv         1 X35      -1.015500
      4 C4           1.8660     0.0000     1.2680 cd         1 X35      -0.348000
      5 C5           3.2390     0.0000     1.5750 c          1 X35       0.642300
      6 C6           3.6830     0.1490     2.9790 ca         1 X35      -0.284900
      7 C7           4.9140    -0.3620     3.3910 ca         1 X35       0.470200
      8 N8           5.3100    -0.2290     4.6400 nb         1 X35      -0.697000
      9 C9           4.5710     0.3840     5.5430 ca         1 X35       0.436200
     10 C10          3.3370     0.9180     5.2150 ca         1 X35      -0.263300
     11 C11          2.8790     0.8110     3.9140 ca         1 X35      -0.072000
     12 O12          4.0630    -0.1230     0.6840 o          1 X35      -0.554100
     13 S13          0.5410     0.0020     2.4300 ss         1 X35      -0.227300
     14 C14         -0.5980     0.0020     1.1570 cd         1 X35       0.757300
     15 N15         -1.9630     0.0020     1.3300 nu         1 X35      -0.879900
     16 C16         -2.8490     0.0010     0.1630 c3         1 X35       0.273000
     17 C17         -4.2850     0.0030     0.6230 c2         1 X35      -0.211200
     18 C18         -5.1070     0.9320     0.2020 c2         1 X35      -0.188000
     19 HN3          1.9260    -0.7090    -1.8520 hn         1 X35       0.450300
     20 HN3A         2.7660     0.7050    -1.3030 hn         1 X35       0.450300
     21 H7           5.5500    -0.8720     2.6780 h4         1 X35       0.043100
     22 H9           4.9340     0.4680     6.5610 h4         1 X35       0.023100
     23 H10          2.7410     1.4210     5.9660 ha         1 X35       0.139000
     24 H11          1.9170     1.2200     3.6290 ha         1 X35       0.150000
     25 HN15        -2.3510     0.0190     2.2530 hn         1 X35       0.456800
     26 H16         -2.6600     0.8840    -0.4350 h1         1 X35       0.062700
     27 H16A        -2.6620    -0.8850    -0.4310 h1         1 X35       0.062700
     28 H17         -4.6380    -0.7650     1.3010 ha         1 X35       0.129000
     29 H18         -6.1380     0.9330     0.5330 ha         1 X35       0.119000
     30 H18A        -4.7550     1.7000    -0.4760 ha         1 X35       0.119000
@<TRIPOS>BOND
     1     1     2 1
     2     1    14 2
     3     2     3 1
     4     2     4 2
     5     4     5 1
     6     4    13 1
     7     5     6 1
     8     5    12 2
     9     6     7 ar
    10     6    11 ar
    11     7     8 ar
    12     8     9 ar
    13     9    10 ar
    14    10    11 ar
    15    13    14 1
    16    14    15 1
    17    15    16 1
    18    16    17 1
    19    17    18 2
    20     3    19 1
    21     3    20 1
    22     7    21 1
    23     9    22 1
    24    10    23 1
    25    11    24 1
    26    15    25 1
    27    16    26 1
    28    16    27 1
    29    17    28 1
    30    18    29 1
    31    18    30 1
@<TRIPOS>SUBSTRUCTURE
     1 X35         1 TEMP              0 ****  ****    0 ROOT
