@<TRIPOS>MOLECULE
molecule
   34    36     1     0     0
SMALL
bcc


@<TRIPOS>ATOM
      1 N1           0.0000     0.0000     0.0000 nc         1 X36      -0.799000
      2 C2           1.3130     0.0000     0.0000 cc         1 X36       0.763200
      3 N3           2.0720     0.0020    -1.1590 nv         1 X36      -1.031500
      4 C4           1.8660     0.0000     1.2680 cd         1 X36      -0.326000
      5 C5           3.2390    -0.0000     1.5740 c          1 X36       0.635300
      6 C6           3.6840     0.1380     2.9790 ca         1 X36      -0.160600
      7 C7           4.8950    -0.4190     3.3890 ca         1 X36      -0.091000
      8 C8           5.3050    -0.2880     4.7000 ca         1 X36      -0.137000
      9 C9           4.5160     0.3970     5.6070 ca         1 X36      -0.109000
     10 C10          3.3130     0.9520     5.2070 ca         1 X36      -0.137000
     11 C11          2.8960     0.8320     3.8980 ca         1 X36      -0.091000
     12 O12          4.0620    -0.1140     0.6820 o          1 X36      -0.543100
     13 S13          0.5410    -0.0010     2.4290 ss         1 X36      -0.198300
     14 C14         -0.5980    -0.0010     1.1560 cd         1 X36       0.735300
     15 N15         -1.9640    -0.0010     1.3300 nu         1 X36      -0.738300
     16 C16         -2.8100    -0.0410     0.2170 ca         1 X36       0.141600
     17 C17         -4.0510    -0.6590     0.3080 ca         1 X36      -0.144000
     18 C18         -4.8840    -0.6960    -0.7920 ca         1 X36      -0.111000
     19 C19         -4.4850    -0.1190    -1.9840 ca         1 X36      -0.144000
     20 C20         -3.2500     0.4970    -2.0780 ca         1 X36      -0.111000
     21 C21         -2.4140     0.5430    -0.9790 ca         1 X36      -0.144000
     22 HN3          2.0580    -0.7930    -1.7680 hn         1 X36       0.448800
     23 HN3A         2.6470     0.7910    -1.3790 hn         1 X36       0.448800
     24 H7           5.5130    -0.9560     2.6790 ha         1 X36       0.144500
     25 H8           6.2450    -0.7200     5.0190 ha         1 X36       0.132500
     26 H9           4.8400     0.4960     6.6360 ha         1 X36       0.130000
     27 H10          2.7020     1.4890     5.9220 ha         1 X36       0.132500
     28 H11          1.9540     1.2670     3.5860 ha         1 X36       0.144500
     29 HN15        -2.3510     0.0870     2.2490 hn         1 X36       0.462800
     30 H17         -4.3650    -1.1110     1.2410 ha         1 X36       0.150000
     31 H18         -5.8520    -1.1780    -0.7220 ha         1 X36       0.132500
     32 H19         -5.1390    -0.1520    -2.8470 ha         1 X36       0.130000
     33 H20         -2.9410     0.9490    -3.0120 ha         1 X36       0.132500
     34 H21         -1.4470     1.0250    -1.0540 ha         1 X36       0.150000
@<TRIPOS>BOND
     1     1     2 1
     2     1    14 2
     3     2     3 1
     4     2     4 2
     5     4     5 1
     6     4    13 1
     7     5     6 1
     8     5    12 2
     9     6     7 ar
    10     6    11 ar
    11     7     8 ar
    12     8     9 ar
    13     9    10 ar
    14    10    11 ar
    15    13    14 1
    16    14    15 1
    17    15    16 1
    18    16    17 ar
    19    16    21 ar
    20    17    18 ar
    21    18    19 ar
    22    19    20 ar
    23    20    21 ar
    24     3    22 1
    25     3    23 1
    26     7    24 1
    27     8    25 1
    28     9    26 1
    29    10    27 1
    30    11    28 1
    31    15    29 1
    32    17    30 1
    33    18    31 1
    34    19    32 1
    35    20    33 1
    36    21    34 1
@<TRIPOS>SUBSTRUCTURE
     1 X36         1 TEMP              0 ****  ****    0 ROOT
