@<TRIPOS>MOLECULE
molecule
   57    60     1     0     0
SMALL
bcc


@<TRIPOS>ATOM
      1 N1           0.0000     0.0000     0.0000 nh         1 X37      -0.687300
      2 C2           1.4690     0.0000     0.0000 c3         1 X37       0.158800
      3 C3           1.9800     0.0000     1.4420 c3         1 X37      -0.100900
      4 C4           1.4520    -1.2420     2.1650 c3         1 X37       0.110200
      5 N5           1.9670    -2.4500     1.5080 nz         1 X37      -0.807600
      6 C9           1.9120    -1.2180     3.6250 c3         1 X37      -0.042100
      7 C10          1.4960    -2.4970     4.3030 ca         1 X37      -0.163300
      8 C11          2.3430    -3.5900     4.2960 ca         1 X37      -0.135500
      9 C12          1.9620    -4.7640     4.9190 ca         1 X37      -0.112000
     10 C13          0.7340    -4.8450     5.5490 ca         1 X37      -0.038300
     11 C14         -0.1120    -3.7510     5.5570 ca         1 X37      -0.112000
     12 C15          0.2710    -2.5770     4.9380 ca         1 X37      -0.135500
     13 C16          0.3190    -6.1250     6.2280 c3         1 X37      -0.033700
     14 C17          1.3230    -6.4690     7.3290 c3         1 X37      -0.082767
     15 C18         -1.0720    -5.9480     6.8410 c3         1 X37      -0.082767
     16 C19          0.2820    -7.2580     5.2000 c3         1 X37      -0.082767
     17 C20         -0.0780    -1.2430     2.1100 c3         1 X37      -0.100900
     18 C21         -0.5310    -1.2060     0.6480 c3         1 X37       0.158800
     19 C22         -0.4970     0.1320    -1.2830 ca         1 X37       0.666200
     20 N23          0.3240     0.2390    -2.3240 nb         1 X37      -0.819000
     21 C24         -0.1460     0.3640    -3.5530 ca         1 X37       0.725900
     22 N25         -1.4330     0.3920    -3.8220 nb         1 X37      -0.747000
     23 C26         -2.3340     0.2910    -2.8460 ca         1 X37       0.512800
     24 N27         -3.7020     0.2870    -2.8050 na         1 X37      -0.262100
     25 C29         -4.1320     0.1540    -1.5110 cc         1 X37      -0.074100
     26 C30         -3.0760     0.0700    -0.6860 cd         1 X37      -0.195200
     27 C31         -1.8800     0.1500    -1.5210 ca         1 X37      -0.356400
     28 HN5          2.9550    -2.5150     1.6560 hn         1 X37       0.453800
     29 HN5A         1.7790    -2.4020     0.5260 hn         1 X37       0.453800
     30 HN5B         1.5190    -3.2570     1.8940 hn         1 X37       0.453800
     31 HN27        -4.3000     0.3690    -3.6030 hn         1 X37       0.321700
     32 H2           1.8280    -0.8860    -0.5090 h1         1 X37       0.060700
     33 H2A          1.8280     0.8860    -0.5090 h1         1 X37       0.060700
     34 H3           3.0640    -0.0170     1.4400 hc         1 X37       0.091450
     35 H3A          1.6280     0.8900     1.9490 hc         1 X37       0.091450
     36 H9           2.9910    -1.1240     3.6620 hc         1 X37       0.087700
     37 H9A          1.4580    -0.3760     4.1330 hc         1 X37       0.087700
     38 H11          3.3050    -3.5270     3.8030 ha         1 X37       0.128000
     39 H12          2.6250    -5.6200     4.9130 ha         1 X37       0.156000
     40 H14         -1.0740    -3.8140     6.0530 ha         1 X37       0.156000
     41 H15         -0.3920    -1.7210     4.9450 ha         1 X37       0.128000
     42 H17          0.9360    -7.2830     7.9300 hc         1 X37       0.043256
     43 H17A         2.2630    -6.7660     6.8810 hc         1 X37       0.043256
     44 H17B         1.4810    -5.6000     7.9580 hc         1 X37       0.043256
     45 H18         -1.3720    -6.8680     7.3280 hc         1 X37       0.043256
     46 H18A        -1.0460    -5.1460     7.5690 hc         1 X37       0.043256
     47 H18B        -1.7820    -5.7040     6.0610 hc         1 X37       0.043256
     48 H19         -0.1450    -8.1440     5.6540 hc         1 X37       0.043256
     49 H19A         1.2890    -7.4740     4.8640 hc         1 X37       0.043256
     50 H19B        -0.3250    -6.9590     4.3540 hc         1 X37       0.043256
     51 H20         -0.4550    -2.1430     2.5820 hc         1 X37       0.091450
     52 H20A        -0.4580    -0.3710     2.6280 hc         1 X37       0.091450
     53 H21         -0.1580    -2.0840     0.1340 h1         1 X37       0.060700
     54 H21A        -1.6130    -1.1900     0.6070 h1         1 X37       0.060700
     55 H24          0.5580     0.4490    -4.3720 h5         1 X37       0.072100
     56 H29         -5.1700     0.1240    -1.2000 h4         1 X37       0.185000
     57 H30         -3.1050    -0.0400     0.3910 ha         1 X37       0.156000
@<TRIPOS>BOND
     1     1     2 1
     2     1    18 1
     3     1    19 1
     4     2     3 1
     5     2    32 1
     6     2    33 1
     7     3     4 1
     8     3    34 1
     9     3    35 1
    10     4     5 1
    11     4     6 1
    12     4    17 1
    13     5    28 1
    14     5    29 1
    15     5    30 1
    16     6     7 1
    17     6    36 1
    18     6    37 1
    19     7     8 ar
    20     7    12 ar
    21     8     9 ar
    22     8    38 1
    23     9    10 ar
    24     9    39 1
    25    10    11 ar
    26    10    13 1
    27    11    12 ar
    28    11    40 1
    29    12    41 1
    30    13    14 1
    31    13    15 1
    32    13    16 1
    33    14    42 1
    34    14    43 1
    35    14    44 1
    36    15    45 1
    37    15    46 1
    38    15    47 1
    39    16    48 1
    40    16    49 1
    41    16    50 1
    42    17    18 1
    43    17    51 1
    44    17    52 1
    45    18    53 1
    46    18    54 1
    47    19    20 ar
    48    19    27 ar
    49    20    21 ar
    50    21    22 ar
    51    21    55 1
    52    22    23 ar
    53    23    24 1
    54    23    27 ar
    55    24    25 1
    56    24    31 1
    57    25    26 2
    58    25    56 1
    59    26    27 1
    60    26    57 1
@<TRIPOS>SUBSTRUCTURE
     1 X37         1 TEMP              0 ****  ****    0 ROOT
