@<TRIPOS>MOLECULE
molecule
   49    52     1     0     0
SMALL
bcc


@<TRIPOS>ATOM
      1 N1           0.0000     0.0000     0.0000 nh         1 X39      -0.684300
      2 C2           1.4680     0.0000     0.0000 c3         1 X39       0.158800
      3 C3           1.9790     0.0000     1.4430 c3         1 X39      -0.092400
      4 C4           1.4510    -1.2420     2.1670 c3         1 X39       0.029200
      5 N5           1.9660    -2.4500     1.5110 nz         1 X39      -0.813600
      6 C9          -0.0790    -1.2420     2.1110 c3         1 X39      -0.092400
      7 C10         -0.5310    -1.2060     0.6490 c3         1 X39       0.158800
      8 C11          1.9030    -1.2160     3.6040 c          1 X39       0.628100
      9 O12          2.1680    -0.1610     4.1390 o          1 X39      -0.515100
     10 N13          2.0140    -2.3670     4.2950 ns         1 X39      -0.583900
     11 C14          2.4530    -2.3440     5.6930 c3         1 X39       0.162300
     12 C15          2.4920    -3.7500     6.2320 ca         1 X39      -0.150300
     13 C16          3.6490    -4.5010     6.1220 ca         1 X39      -0.103500
     14 C17          3.6850    -5.7900     6.6160 ca         1 X39      -0.119500
     15 C18          2.5640    -6.3320     7.2200 ca         1 X39       0.048400
     16 Cl1          2.6090    -7.9530     7.8410 cl         1 X39      -0.071400
     17 C20          1.4080    -5.5810     7.3300 ca         1 X39      -0.119500
     18 C21          1.3740    -4.2890     6.8400 ca         1 X39      -0.103500
     19 C22         -0.4960     0.1310    -1.2840 ca         1 X39       0.663200
     20 N23          0.3250     0.2370    -2.3250 nb         1 X39      -0.818000
     21 C24         -0.1450     0.3620    -3.5530 ca         1 X39       0.725900
     22 N25         -1.4310     0.3890    -3.8230 nb         1 X39      -0.745000
     23 C26         -2.3330     0.2900    -2.8480 ca         1 X39       0.513800
     24 N27         -3.7000     0.2860    -2.8080 na         1 X39      -0.262100
     25 C29         -4.1320     0.1550    -1.5130 cc         1 X39      -0.071100
     26 C30         -3.0750     0.0700    -0.6880 cd         1 X39      -0.197200
     27 C31         -1.8790     0.1500    -1.5240 ca         1 X39      -0.356400
     28 H21C         1.8280     0.8860    -0.5090 h1         1 X39       0.062200
     29 H22C         1.8280    -0.8860    -0.5090 h1         1 X39       0.062200
     30 H101        -1.6140    -1.1900     0.6070 h1         1 X39       0.062200
     31 H102        -0.1580    -2.0850     0.1360 h1         1 X39       0.062200
     32 H31C         1.6280     0.8900     1.9500 hc         1 X39       0.101200
     33 H32C         3.0630    -0.0180     1.4410 hc         1 X39       0.101200
     34 H51N         1.5470    -3.2590     1.9240 hn         1 X39       0.455467
     35 H52N         2.9590    -2.4930     1.6250 hn         1 X39       0.455467
     36 H91C        -0.4590    -0.3680     2.6270 hc         1 X39       0.101200
     37 H92C        -0.4570    -2.1400     2.5830 hc         1 X39       0.101200
     38 H13          1.7650    -3.2360     3.8640 hn         1 X39       0.296500
     39 H141         3.4420    -1.9060     5.7540 h1         1 X39       0.078200
     40 H142         1.7600    -1.7520     6.2790 h1         1 X39       0.078200
     41 H16          4.5270    -4.0770     5.6490 ha         1 X39       0.140000
     42 H21          0.4680    -3.7010     6.9260 ha         1 X39       0.140000
     43 H17          4.5910    -6.3780     6.5300 ha         1 X39       0.159000
     44 H20          0.5300    -6.0040     7.8050 ha         1 X39       0.159000
     45 H24          0.5600     0.4450    -4.3720 h5         1 X39       0.073100
     46 H27         -4.2980     0.3680    -3.6070 hn         1 X39       0.322700
     47 H29         -5.1690     0.1260    -1.2020 h4         1 X39       0.187000
     48 H30         -3.1050    -0.0400     0.3890 ha         1 X39       0.156000
     49 H53          1.7240    -2.4310     0.5400 hn         1 X39       0.455467
@<TRIPOS>BOND
     1     1     2 1
     2     1     7 1
     3     1    19 1
     4     2     3 1
     5     3     4 1
     6     4     5 1
     7     4     6 1
     8     4     8 1
     9     6     7 1
    10     8     9 2
    11     8    10 1
    12    10    11 1
    13    11    12 1
    14    12    13 ar
    15    12    18 ar
    16    13    14 ar
    17    14    15 ar
    18    15    16 1
    19    15    17 ar
    20    17    18 ar
    21    19    20 ar
    22    19    27 ar
    23    20    21 ar
    24    21    22 ar
    25    22    23 ar
    26    23    24 1
    27    23    27 ar
    28    24    25 1
    29    25    26 2
    30    26    27 1
    31     2    28 1
    32     2    29 1
    33     7    30 1
    34     7    31 1
    35     3    32 1
    36     3    33 1
    37     5    34 1
    38     5    35 1
    39     6    36 1
    40     6    37 1
    41    10    38 1
    42    11    39 1
    43    11    40 1
    44    13    41 1
    45    18    42 1
    46    14    43 1
    47    17    44 1
    48    21    45 1
    49    24    46 1
    50    25    47 1
    51    26    48 1
    52    49     5 1
@<TRIPOS>SUBSTRUCTURE
     1 X39         1 TEMP              0 ****  ****    0 ROOT
