@<TRIPOS>MOLECULE
X3A
   33    35     1     0     0
SMALL
bcc


@<TRIPOS>ATOM
      1 N1           0.0000     0.0000     0.0000 nc         1 X3A      -0.698000
      2 C2           1.3130     0.0000     0.0000 cc         1 X3A       0.591200
      3 N3           2.0720    -0.0000    -1.1590 nv         1 X3A      -0.557500
      4 C4           1.8650     0.0000     1.2690 cd         1 X3A      -0.314000
      5 C5           3.2390     0.0000     1.5750 c          1 X3A       0.707300
      6 C6           3.6840     0.1450     2.9800 ca         1 X3A      -0.288900
      7 C7           4.9100    -0.3750     3.3920 ca         1 X3A       0.460200
      8 N8           5.3070    -0.2460     4.6420 nb         1 X3A      -0.594000
      9 C9           4.5710     0.3730     5.5460 ca         1 X3A       0.424200
     10 C10          3.3410     0.9150     5.2160 ca         1 X3A      -0.231300
     11 C11          2.8820     0.8110     3.9140 ca         1 X3A      -0.060000
     12 O12          4.0620    -0.1200     0.6840 o          1 X3A      -0.584100
     13 S13          0.5410     0.0020     2.4290 ss         1 X3A      -0.303300
     14 C14         -0.5980     0.0010     1.1560 cd         1 X3A       0.571300
     15 N15         -1.9640     0.0020     1.3300 nu         1 X3A      -0.231300
     16 C16         -2.8100    -0.0230     0.2160 ca         1 X3A      -0.028400
     17 C17         -4.0590    -0.6250     0.3050 ca         1 X3A      -0.119000
     18 C18         -4.8920    -0.6490    -0.7970 ca         1 X3A      -0.080500
     19 C19         -4.4840    -0.0760    -1.9860 ca         1 X3A      -0.111000
     20 C20         -3.2410     0.5250    -2.0780 ca         1 X3A      -0.080500
     21 C21         -2.4050     0.5570    -0.9780 ca         1 X3A      -0.119000
     22 HN3          1.9990    -0.7620    -1.8040 hn         1 X3A       0.282300
     23 HN3A         2.6560     0.7840    -1.3740 hn         1 X3A       0.282300
     24 H7           5.5430    -0.8900     2.6780 h4         1 X3A      -0.002900
     25 H9           4.9340     0.4550     6.5630 h4         1 X3A      -0.021900
     26 H10          2.7470     1.4220     5.9670 ha         1 X3A       0.114000
     27 H11          1.9230     1.2260     3.6280 ha         1 X3A       0.137000
     28 HN15        -2.3510     0.0500     2.2510 hn         1 X3A       0.288800
     29 H17         -4.3800    -1.0740     1.2370 ha         1 X3A       0.126500
     30 H18         -5.8660    -1.1180    -0.7280 ha         1 X3A       0.104500
     31 H19         -5.1380    -0.0980    -2.8490 ha         1 X3A       0.104000
     32 H20         -2.9250     0.9750    -3.0110 ha         1 X3A       0.104500
     33 H21         -1.4320     1.0270    -1.0500 ha         1 X3A       0.126500
@<TRIPOS>BOND
     1     1     2 1   
     2     1    14 2   
     3     2     3 1   
     4     2     4 2   
     5     3    22 1   
     6     3    23 1   
     7     4     5 1   
     8     4    13 1   
     9     5     6 1   
    10     5    12 2   
    11     6     7 ar  
    12     6    11 ar  
    13     7     8 ar  
    14     7    24 1   
    15     8     9 ar  
    16     9    10 ar  
    17     9    25 1   
    18    10    11 ar  
    19    10    26 1   
    20    11    27 1   
    21    13    14 1   
    22    14    15 1   
    23    15    16 1   
    24    15    28 1   
    25    16    17 ar  
    26    16    21 ar  
    27    17    18 ar  
    28    17    29 1   
    29    18    19 ar  
    30    18    30 1   
    31    19    20 ar  
    32    19    31 1   
    33    20    21 ar  
    34    20    32 1   
    35    21    33 1   
@<TRIPOS>SUBSTRUCTURE
     1 X3A         1 TEMP              0 ****  ****    0 ROOT
