@<TRIPOS>MOLECULE
molecule
   62    65     1     0     0
SMALL
bcc


@<TRIPOS>ATOM
      1 C4           0.0000     0.0000     0.0000 ca         1 X3G       0.585800
      2 C5           1.3960     0.0000     0.0000 ca         1 X3G      -0.181700
      3 C6           2.0560     0.0000     1.2160 ca         1 X3G       0.481200
      4 N1           1.3490    -0.0010     2.3360 nb         1 X3G      -0.779000
      5 N3          -0.6440     0.0060     1.1610 nb         1 X3G      -0.795000
      6 CAD          4.4330    -0.3160     7.5050 c3         1 X3G      -0.270300
      7 SBH          3.0090    -0.6980     8.5630 s6         1 X3G       1.440500
      8 OAE          2.3390    -1.8610     8.0970 o          1 X3G      -0.626800
      9 OAF          3.3560    -0.5510     9.9330 o          1 X3G      -0.626800
     10 CBC          1.3580     0.3250     7.1210 ca         1 X3G       0.058100
     11 CAW          0.2020    -0.4360     7.0420 ca         1 X3G      -0.041300
     12 CAB         -0.3180    -1.1450     8.2660 c3         1 X3G      -0.056800
     13 CAK         -0.4740    -0.5450     5.8440 ca         1 X3G      -0.144500
     14 CAV          1.8340     0.9830     5.9960 ca         1 X3G      -0.041300
     15 CAA          3.0870     1.8160     6.0840 c3         1 X3G      -0.056800
     16 CAJ          1.1600     0.8750     4.7960 ca         1 X3G      -0.144500
     17 CAZ          0.0050     0.1080     4.7160 ca         1 X3G       0.180600
     18 C2           0.0250    -0.0010     2.3050 ca         1 X3G       0.950900
     19 F5           2.0870    -0.0000    -1.1610 f          1 X3G      -0.121900
     20 NBG         -0.7080     0.0010    -1.2020 na         1 X3G      -0.088900
     21 CAM         -1.8960    -0.6350    -1.4280 cc         1 X3G      -0.124300
     22 CAL         -0.3320     0.6430    -2.3490 cc         1 X3G      -0.150300
     23 CAX         -1.2690     0.4100    -3.2890 cd         1 X3G      -0.118300
     24 CAC         -1.2600     0.9250    -4.7050 c3         1 X3G      -0.013800
     25 CBA         -2.2620    -0.4020    -2.7040 cd         1 X3G      -0.147300
     26 CAP         -3.5090    -0.9120    -3.3810 c3         1 X3G       0.237100
     27 NBF         -3.1750    -2.0840    -4.2020 n3         1 X3G      -0.712600
     28 CAQ         -4.3070    -2.4580    -5.0760 c3         1 X3G       0.137800
     29 CAO         -2.8340    -3.2420    -3.3550 c3         1 X3G       0.152800
     30 CAN         -3.7870    -4.3910    -3.7450 c3         1 X3G      -0.116400
     31 CBE         -4.2350    -4.0020    -5.1790 c3         1 X3G       0.133100
     32 OAG         -5.5160    -4.5560    -5.4830 oh         1 X3G      -0.599800
     33 H1           3.1390     0.0000     1.2520 h4         1 X3G       0.049100
     34 H2           5.2650    -0.9550     7.7770 h1         1 X3G       0.101033
     35 H3           4.7150     0.7210     7.6390 h1         1 X3G       0.101033
     36 H4           4.1690    -0.4880     6.4690 h1         1 X3G       0.101033
     37 H5          -0.0160    -2.1850     8.2370 hc         1 X3G       0.055700
     38 H6           0.0890    -0.6770     9.1550 hc         1 X3G       0.055700
     39 H7          -1.3990    -1.0830     8.2880 hc         1 X3G       0.055700
     40 H8          -1.3760    -1.1420     5.7820 ha         1 X3G       0.154500
     41 H9           3.9110     1.2780     5.6290 hc         1 X3G       0.055700
     42 H10          3.3160     2.0150     7.1240 hc         1 X3G       0.055700
     43 H11          2.9350     2.7530     5.5620 hc         1 X3G       0.055700
     44 H12          1.5320     1.3870     3.9170 ha         1 X3G       0.154500
     45 H13         -1.6810    -0.0340     3.4880 hn         1 X3G       0.474800
     46 H14         -2.4470    -1.2270    -0.7070 h4         1 X3G       0.176000
     47 H15          0.5600     1.2440    -2.4760 h4         1 X3G       0.179000
     48 H16         -0.5010     1.6920    -4.8050 hc         1 X3G       0.042033
     49 H17         -1.0410     0.1100    -5.3840 hc         1 X3G       0.042033
     50 H18         -2.2300     1.3430    -4.9440 hc         1 X3G       0.042033
     51 H19         -4.2380    -1.1930    -2.6300 h1         1 X3G       0.040700
     52 H20         -3.9210    -0.1340    -4.0120 h1         1 X3G       0.040700
     53 H22         -4.1900    -2.0100    -6.0550 h1         1 X3G       0.051200
     54 H23         -5.2450    -2.1560    -4.6260 h1         1 X3G       0.051200
     55 H24         -2.9730    -2.9880    -2.3110 h1         1 X3G       0.048700
     56 H25         -1.8080    -3.5390    -3.5340 h1         1 X3G       0.048700
     57 H26         -4.6380    -4.4250    -3.0760 hc         1 X3G       0.057200
     58 H27         -3.2600    -5.3370    -3.7540 hc         1 X3G       0.057200
     59 H28         -3.4920    -4.3030    -5.9080 h1         1 X3G       0.048700
     60 H29         -5.4620    -5.0510    -6.2840 ho         1 X3G       0.403000
     61 NAT         -0.6800    -0.0010     3.4980 nu         1 X3G      -0.749300
     62 OAU          2.0220     0.4330     8.3020 os         1 X3G      -0.445800
@<TRIPOS>BOND
     1    12    11 1
     2    13    11 ar
     3    13    17 ar
     4    11    10 ar
     5     9     7 2
     6     8     7 2
     7    61    17 1
     8    61    18 1
     9    17    16 ar
    10     4    18 ar
    11     4     3 ar
    12    18     5 ar
    13     7    62 1
    14     7     6 1
    15    10    62 1
    16    10    14 ar
    17     3     2 ar
    18    16    14 ar
    19    14    15 1
    20     5     1 ar
    21     2     1 ar
    22     2    19 1
    23     1    20 1
    24    20    21 1
    25    20    22 1
    26    21    25 2
    27    22    23 2
    28    25    23 1
    29    25    26 1
    30    23    24 1
    31    26    27 1
    32    28    27 1
    33    28    31 1
    34    27    29 1
    35    32    31 1
    36    31    30 1
    37    29    30 1
    38     3    33 1
    39     6    34 1
    40     6    35 1
    41     6    36 1
    42    12    37 1
    43    12    38 1
    44    12    39 1
    45    13    40 1
    46    15    41 1
    47    15    42 1
    48    15    43 1
    49    16    44 1
    50    61    45 1
    51    21    46 1
    52    22    47 1
    53    24    48 1
    54    24    49 1
    55    24    50 1
    56    26    51 1
    57    26    52 1
    58    28    53 1
    59    28    54 1
    60    29    55 1
    61    29    56 1
    62    30    57 1
    63    30    58 1
    64    31    59 1
    65    32    60 1
@<TRIPOS>SUBSTRUCTURE
     1 X3G         1 TEMP              0 ****  ****    0 ROOT
