@<TRIPOS>MOLECULE
X3G
   62    65     1     0     0
SMALL
bcc


@<TRIPOS>ATOM
      1 C4           0.0000     0.0000     0.0000 ca         1 X3G       0.373800
      2 C5           1.3960     0.0000     0.0000 ca         1 X3G      -0.205700
      3 C6           2.0560     0.0000     1.2160 ca         1 X3G       0.481200
      4 N1           1.3490    -0.0010     2.3360 nb         1 X3G      -0.676000
      5 N3          -0.6440     0.0060     1.1610 nb         1 X3G      -0.677000
      6 CAD          4.4330    -0.3160     7.5050 c3         1 X3G      -0.037300
      7 SBH          3.0090    -0.6980     8.5630 s6         1 X3G       1.191500
      8 OAE          2.3390    -1.8610     8.0970 o          1 X3G      -0.597800
      9 OAF          3.3560    -0.5510     9.9330 o          1 X3G      -0.597800
     10 CBC          1.3580     0.3250     7.1210 ca         1 X3G       0.117100
     11 CAW          0.2020    -0.4360     7.0420 ca         1 X3G      -0.071800
     12 CAB         -0.3180    -1.1450     8.2660 c3         1 X3G       0.047200
     13 CAK         -0.4740    -0.5450     5.8440 ca         1 X3G      -0.110000
     14 CAV          1.8340     0.9830     5.9960 ca         1 X3G      -0.071800
     15 CAA          3.0870     1.8160     6.0840 c3         1 X3G       0.047200
     16 CAJ          1.1600     0.8750     4.7960 ca         1 X3G      -0.110000
     17 CAZ          0.0050     0.1080     4.7160 ca         1 X3G      -0.004400
     18 C2           0.0250    -0.0010     2.3050 ca         1 X3G       0.711900
     19 F5           2.0870    -0.0000    -1.1610 f          1 X3G      -0.107900
     20 NBG         -0.7080     0.0010    -1.2020 na         1 X3G       0.439100
     21 CAM         -1.8960    -0.6350    -1.4280 cc         1 X3G      -0.301300
     22 CAL         -0.3320     0.6430    -2.3490 cc         1 X3G      -0.333300
     23 CAX         -1.2690     0.4100    -3.2890 cd         1 X3G      -0.113300
     24 CAC         -1.2600     0.9250    -4.7050 c3         1 X3G       0.100200
     25 CBA         -2.2620    -0.4020    -2.7040 cd         1 X3G      -0.151300
     26 CAP         -3.5090    -0.9120    -3.3810 c3         1 X3G       0.250100
     27 NBF         -3.1750    -2.0840    -4.2020 n3         1 X3G      -0.540600
     28 CAQ         -4.3070    -2.4580    -5.0760 c3         1 X3G       0.131800
     29 CAO         -2.8340    -3.2420    -3.3550 c3         1 X3G       0.148800
     30 CAN         -3.7870    -4.3910    -3.7450 c3         1 X3G      -0.063400
     31 CBE         -4.2350    -4.0020    -5.1790 c3         1 X3G       0.181100
     32 OAG         -5.5160    -4.5560    -5.4830 oh         1 X3G      -0.578800
     33 H1           3.1390     0.0000     1.2520 h4         1 X3G      -0.001900
     34 H2           5.2650    -0.9550     7.7770 h1         1 X3G       0.071700
     35 H3           4.7150     0.7210     7.6390 h1         1 X3G       0.071700
     36 H4           4.1690    -0.4880     6.4690 h1         1 X3G       0.071700
     37 H5          -0.0160    -2.1850     8.2370 hc         1 X3G       0.019033
     38 H6           0.0890    -0.6770     9.1550 hc         1 X3G       0.019033
     39 H7          -1.3990    -1.0830     8.2880 hc         1 X3G       0.019033
     40 H8          -1.3760    -1.1420     5.7820 ha         1 X3G       0.126000
     41 H9           3.9110     1.2780     5.6290 hc         1 X3G       0.019033
     42 H10          3.3160     2.0150     7.1240 hc         1 X3G       0.019033
     43 H11          2.9350     2.7530     5.5620 hc         1 X3G       0.019033
     44 H12          1.5320     1.3870     3.9170 ha         1 X3G       0.126000
     45 H13         -1.6810    -0.0340     3.4880 hn         1 X3G       0.297800
     46 H14         -2.4470    -1.2270    -0.7070 h4         1 X3G       0.154000
     47 H15          0.5600     1.2440    -2.4760 h4         1 X3G       0.159000
     48 H16         -0.5010     1.6920    -4.8050 hc         1 X3G       0.005033
     49 H17         -1.0410     0.1100    -5.3840 hc         1 X3G       0.005033
     50 H18         -2.2300     1.3430    -4.9440 hc         1 X3G       0.005033
     51 H19         -4.2380    -1.1930    -2.6300 h1         1 X3G       0.010700
     52 H20         -3.9210    -0.1340    -4.0120 h1         1 X3G       0.010700
     53 H22         -4.1900    -2.0100    -6.0550 h1         1 X3G       0.020700
     54 H23         -5.2450    -2.1560    -4.6260 h1         1 X3G       0.020700
     55 H24         -2.9730    -2.9880    -2.3110 h1         1 X3G       0.019700
     56 H25         -1.8080    -3.5390    -3.5340 h1         1 X3G       0.019700
     57 H26         -4.6380    -4.4250    -3.0760 hc         1 X3G       0.026200
     58 H27         -3.2600    -5.3370    -3.7540 hc         1 X3G       0.026200
     59 H28         -3.4920    -4.3030    -5.9080 h1         1 X3G       0.012700
     60 H29         -5.4620    -5.0510    -6.2840 ho         1 X3G       0.389000
     61 NAT         -0.6800    -0.0010     3.4980 nu         1 X3G      -0.273300
     62 OAU          2.0220     0.4330     8.3020 os         1 X3G      -0.360800
@<TRIPOS>BOND
     1     1     2 ar  
     2     1     5 ar  
     3     1    20 1   
     4     2     3 ar  
     5     2    19 1   
     6     3     4 ar  
     7     3    33 1   
     8     4    18 ar  
     9     5    18 ar  
    10     6     7 1   
    11     6    34 1   
    12     6    35 1   
    13     6    36 1   
    14     7     8 2   
    15     7     9 2   
    16     7    62 1   
    17    10    11 ar  
    18    10    14 ar  
    19    10    62 1   
    20    11    12 1   
    21    11    13 ar  
    22    12    37 1   
    23    12    38 1   
    24    12    39 1   
    25    13    17 ar  
    26    13    40 1   
    27    14    15 1   
    28    14    16 ar  
    29    15    41 1   
    30    15    42 1   
    31    15    43 1   
    32    16    17 ar  
    33    16    44 1   
    34    17    61 1   
    35    18    61 1   
    36    20    21 1   
    37    20    22 1   
    38    21    25 2   
    39    21    46 1   
    40    22    23 2   
    41    22    47 1   
    42    23    24 1   
    43    23    25 1   
    44    24    48 1   
    45    24    49 1   
    46    24    50 1   
    47    25    26 1   
    48    26    27 1   
    49    26    51 1   
    50    26    52 1   
    51    27    28 1   
    52    27    29 1   
    53    28    31 1   
    54    28    53 1   
    55    28    54 1   
    56    29    30 1   
    57    29    55 1   
    58    29    56 1   
    59    30    31 1   
    60    30    57 1   
    61    30    58 1   
    62    31    32 1   
    63    31    59 1   
    64    32    60 1   
    65    45    61 1   
@<TRIPOS>SUBSTRUCTURE
     1 X3G         1 TEMP              0 ****  ****    0 ROOT
