@<TRIPOS>MOLECULE
molecule
   57    57     1     0     0
SMALL
bcc


@<TRIPOS>ATOM
      1 C14          0.0000     0.0000     0.0000 c3         1 X3H      -0.059900
      2 C16         10.0960     6.6490     5.8310 c3         1 X3H      -0.094100
      3 C19          6.6730     0.0580     0.1500 c3         1 X3H       0.126700
      4 C18          3.7800     2.4910     1.2810 c3         1 X3H      -0.083100
      5 C17          5.5790     2.0240     4.3950 c3         1 X3H      -0.089100
      6 O01         12.2300     3.2330     1.8010 o          1 X3H      -0.567500
      7 O07          8.1020     0.8600     3.6450 oh         1 X3H      -0.615800
      8 C13          1.5070     0.0000     0.0000 c2         1 X3H      -0.177200
      9 C12          2.1610     0.0000     1.1350 c2         1 X3H      -0.176200
     10 C15          9.7000     5.6500     4.7420 c3         1 X3H      -0.083400
     11 C11          3.6680    -0.0010     1.1360 c3         1 X3H      -0.045200
     12 C02         12.2470     4.7060     3.6590 c3         1 X3H      -0.185400
     13 C06          8.2230     3.2390     4.0560 c3         1 X3H      -0.094400
     14 O09          6.2830     1.2790     0.7810 os         1 X3H      -0.427600
     15 O06         10.2510     3.6040     2.7500 os         1 X3H      -0.443900
     16 C01         11.5840     3.7870     2.6590 c          1 X3H       0.738600
     17 C10          4.1780     1.1810     1.9640 c3         1 X3H      -0.091700
     18 C08          6.2010     2.2100     3.0110 c3         1 X3H      -0.078700
     19 C07          7.7250     2.1350     3.1210 c3         1 X3H       0.146100
     20 C03         11.7840     4.3070     5.0650 c3         1 X3H      -0.079400
     21 C05          9.7530     3.2430     4.0700 c3         1 X3H       0.166100
     22 C04         10.2530     4.2670     5.0930 c3         1 X3H      -0.108700
     23 C09          5.7030     1.1060     2.0750 c3         1 X3H       0.148100
     24 H141        -0.3610    -0.8600     0.5510 hc         1 X3H       0.039700
     25 H142        -0.3610     0.9070     0.4690 hc         1 X3H       0.039700
     26 H143        -0.3610    -0.0470    -1.0200 hc         1 X3H       0.039700
     27 H161         9.3630     7.4460     5.8740 hc         1 X3H       0.035033
     28 H162        10.1360     6.1430     6.7880 hc         1 X3H       0.035033
     29 H163        11.0690     7.0660     5.6030 hc         1 X3H       0.035033
     30 H191         7.7530    -0.0260     0.1640 h1         1 X3H       0.030033
     31 H192         6.2380    -0.7790     0.6830 h1         1 X3H       0.030033
     32 H193         6.3240     0.0540    -0.8750 h1         1 X3H       0.030033
     33 H182         3.3140     2.2750     0.3280 hc         1 X3H       0.038367
     34 H183         4.6640     3.0980     1.1210 hc         1 X3H       0.038367
     35 H171         4.9980     2.9020     4.6510 hc         1 X3H       0.039700
     36 H172         4.9330     1.1540     4.3880 hc         1 X3H       0.039700
     37 H173         6.3640     1.8840     5.1290 hc         1 X3H       0.039700
     38 H071         8.7570     0.4720     3.0880 ho         1 X3H       0.405000
     39 H13          2.0490    -0.0010    -0.9380 ha         1 X3H       0.123000
     40 H12          1.6190    -0.0000     2.0730 ha         1 X3H       0.123000
     41 H151        10.1090     5.9710     3.7910 hc         1 X3H       0.051700
     42 H152         8.6200     5.6000     4.6720 hc         1 X3H       0.051700
     43 H111         4.0290    -0.9270     1.5680 hc         1 X3H       0.047700
     44 H112         4.0300     0.0880     0.1190 hc         1 X3H       0.047700
     45 H2          11.9580     5.7310     3.4590 hc         1 X3H       0.077700
     46 H021        13.3230     4.6050     3.5890 hc         1 X3H       0.077700
     47 H061         7.8530     3.0570     5.0580 hc         1 X3H       0.067200
     48 H062         7.8620     4.1980     3.7060 hc         1 X3H       0.067200
     49 H10          3.7420     1.1430     2.9550 hc         1 X3H       0.058700
     50 H08          5.9150     3.1760     2.6130 hc         1 X3H       0.069700
     51 H07          8.1650     2.2660     2.1400 h1         1 X3H       0.069700
     52 H1          12.1750     3.3270     5.3100 hc         1 X3H       0.053700
     53 H031        12.1390     5.0350     5.7840 hc         1 X3H       0.053700
     54 H05         10.1200     2.2590     4.3360 h1         1 X3H       0.060700
     55 H04          9.9180     3.9800     6.0830 hc         1 X3H       0.067700
     56 H09          5.9890     0.1390     2.4730 h1         1 X3H       0.051700
     57 H181         3.0820     3.0290     1.9110 hc         1 X3H       0.038367
@<TRIPOS>BOND
     1     1     8 1
     2     8     9 2
     3     4    17 1
     4     9    11 1
     5    11    17 1
     6    17    23 1
     7    14    23 1
     8    14     3 1
     9    23    18 1
    10    18     5 1
    11    18    19 1
    12    19    13 1
    13    19     7 1
    14    13    21 1
    15    10     2 1
    16    10    22 1
    17    15    21 1
    18    15    16 1
    19     6    16 2
    20    21    22 1
    21    16    12 1
    22    22    20 1
    23    12    20 1
    24     2    29 1
    25     2    27 1
    26     2    28 1
    27    10    41 1
    28    10    42 1
    29    22    55 1
    30    20    53 1
    31    20    52 1
    32    12    46 1
    33    12    45 1
    34    21    54 1
    35    13    47 1
    36    13    48 1
    37    19    51 1
    38     7    38 1
    39    18    50 1
    40     5    36 1
    41     5    37 1
    42     5    35 1
    43    23    56 1
    44     3    31 1
    45     3    30 1
    46     3    32 1
    47    17    49 1
    48     4    34 1
    49     4    57 1
    50     4    33 1
    51    11    43 1
    52    11    44 1
    53     9    40 1
    54     8    39 1
    55     1    26 1
    56     1    24 1
    57     1    25 1
@<TRIPOS>SUBSTRUCTURE
     1 X3H         1 TEMP              0 ****  ****    0 ROOT
