@<TRIPOS>MOLECULE
molecule
   29    28     1     0     0
SMALL
bcc


@<TRIPOS>ATOM
      1 C'           0.0000     0.0000     0.0000 c          1 X3J       0.895600
      2 O1'          1.3420     0.0000     0.0000 o          1 X3J      -0.830300
      3 O2'         -0.6050     0.0000     1.0470 o          1 X3J      -0.830300
      4 C1          -0.7540     0.0060    -1.3060 c3         1 X3J      -0.186400
      5 C3          -7.5820    -0.3340    -4.1450 c3         1 X3J       0.061800
      6 N3          -9.0260    -0.3350    -3.8770 nz         1 X3J      -0.807600
      7 O3          -2.6220     1.2220    -0.3730 oh         1 X3J      -0.545800
      8 CM3         -2.6030    -1.1630    -0.1390 c          1 X3J       0.933600
      9 O3'         -2.3480    -2.4160    -0.5480 o          1 X3J      -0.825800
     10 C4          -6.8190    -0.2140    -2.8250 c3         1 X3J       0.099000
     11 N4          -5.3780    -0.2130    -3.0920 ns         1 X3J      -0.623900
     12 CAP         -2.2580     0.0050    -1.0260 c3         1 X3J       0.079800
     13 O4          -4.9080    -0.0300    -0.9310 o          1 X3J      -0.498100
     14 CM4         -3.0210    -0.1140    -2.3460 c3         1 X3J      -0.152400
     15 OAF         -3.1080    -0.9720     0.9420 o          1 X3J      -0.825800
     16 H11C        -0.4920     0.8930    -1.8700 hc         1 X3J       0.020700
     17 H12C        -0.4920    -0.8760    -1.8780 hc         1 X3J       0.020700
     18 H31C        -7.3100    -1.2450    -4.6640 hx         1 X3J       0.101700
     19 H32C        -7.3300     0.5210    -4.7610 hx         1 X3J       0.101700
     20 H31N        -9.5260    -0.4130    -4.7400 hn         1 X3J       0.437800
     21 H32N        -9.2550    -1.1110    -3.2870 hn         1 X3J       0.437800
     22 H41C        -7.0670    -1.0540    -2.1870 h1         1 X3J       0.061200
     23 H42C        -7.0950     0.7090    -2.3300 h1         1 X3J       0.061200
     24 H3          -2.3370     1.9550    -0.8940 ho         1 X3J       0.339000
     25 H4          -5.0430    -0.2580    -4.0350 hn         1 X3J       0.299500
     26 HM41        -2.7450    -1.0370    -2.8410 hc         1 X3J       0.047200
     27 HM42        -2.7740     0.7260    -2.9840 hc         1 X3J       0.047200
     28 C4'         -4.5030    -0.1160    -2.0710 c          1 X3J       0.646100
     29 H33         -9.2880     0.5340    -3.4560 hn         1 X3J       0.437800
@<TRIPOS>BOND
     1     1     2 1
     2     1     3 1
     3     1     4 1
     4     4    12 1
     5     5     6 1
     6     5    10 1
     7     7    12 1
     8     8     9 1
     9     8    12 1
    10     8    15 1
    11    10    11 1
    12    11    28 1
    13    28    13 2
    14    28    14 1
    15    14    12 1
    16     4    16 1
    17     4    17 1
    18     5    18 1
    19     5    19 1
    20     6    20 1
    21     6    21 1
    22    10    22 1
    23    10    23 1
    24     7    24 1
    25    11    25 1
    26    14    26 1
    27    14    27 1
    28    29     6 1
@<TRIPOS>SUBSTRUCTURE
     1 X3J         1 TEMP              0 ****  ****    0 ROOT
