@<TRIPOS>MOLECULE
X3J
   28    27     1     0     0
SMALL
bcc


@<TRIPOS>ATOM
      1 C'         -2.1530    1.5280   -1.6800 c         1 X3J      0.904600
      2 O1'        -2.4830    1.4620   -2.9100 o         1 X3J     -0.879800
      3 O2'        -2.1980    2.6290   -1.0520 o         1 X3J     -0.879800
      4 C1         -1.6190    0.2900   -0.9640 c3        1 X3J     -0.187400
      5 C3         -6.8170    0.9710   -3.9900 c3        1 X3J      0.108800
      6 N3         -8.2110    1.3490   -4.0590 n3        1 X3J     -0.906800
      7 O3         -3.6930   -0.5530   -0.0340 oh        1 X3J     -0.635800
      8 CM3        -1.7500   -2.0290   -0.0680 c         1 X3J      0.893600
      9 O3'        -0.9460   -2.7610   -0.7080 o         1 X3J     -0.855800
     10 C4         -6.3850    0.3280   -2.6460 c3        1 X3J      0.078000
     11 N4         -4.9980    0.0100   -2.5880 n         1 X3J     -0.558900
     12 CAP        -2.5570   -0.9130   -0.8160 c3        1 X3J      0.061800
     13 O4         -5.3110   -2.2590   -2.5340 o         1 X3J     -0.711100
     14 CM4        -3.0480   -1.4470   -2.1660 c3        1 X3J     -0.131400
     15 OAF        -1.9490   -2.1340    1.1810 o         1 X3J     -0.855800
     16 H11C       -1.3050    0.5940    0.0680 hc        1 X3J      0.037200
     17 H12C       -0.7120   -0.0610   -1.5210 hc        1 X3J      0.037200
     18 H31C       -6.6160    0.2440   -4.8260 h1        1 X3J      0.059200
     19 H32C       -6.1950    1.8900   -4.1780 h1        1 X3J      0.059200
     20 H31N       -8.4120    2.0340   -3.3540 hn        1 X3J      0.324800
     21 H32N       -8.7890    0.5500   -3.8740 hn        1 X3J      0.324800
     22 H41C       -6.9920   -0.6100   -2.4850 h1        1 X3J      0.030200
     23 H42C       -6.6390    1.0530   -1.8180 h1        1 X3J      0.030200
     24 H3         -3.4550   -0.7290    0.8890 ho        1 X3J      0.417000
     25 H4         -4.3410    0.7630   -2.4680 hn        1 X3J      0.375500
     26 HM41       -2.8180   -2.5440   -2.2270 hc        1 X3J      0.082700
     27 HM42       -2.4860   -0.9130   -2.9800 hc        1 X3J      0.082700
     28 C4'        -4.5340   -1.2770   -2.4140 c         1 X3J      0.697100
@<TRIPOS>BOND
     1    1    2 1   
     2    1    3 1   
     3    1    4 1   
     4    4   12 1   
     5    4   16 1   
     6    4   17 1   
     7    5    6 1   
     8    5   10 1   
     9    5   18 1   
    10    5   19 1   
    11    6   20 1   
    12    6   21 1   
    13    7   12 1   
    14    7   24 1   
    15    8    9 1   
    16    8   12 1   
    17    8   15 1   
    18   10   11 1   
    19   10   22 1   
    20   10   23 1   
    21   11   25 1   
    22   11   28 1   
    23   12   14 1   
    24   13   28 2   
    25   14   26 1   
    26   14   27 1   
    27   14   28 1   
@<TRIPOS>SUBSTRUCTURE
     1 X3J         1 TEMP              0 ****  ****    0 ROOT
