@<TRIPOS>MOLECULE
X3X
   29    28     1     0     0
SMALL
bcc


@<TRIPOS>ATOM
      1 O3          0.5810    0.3380    2.3520 oh        1 X3X     -0.619300
      2 C3          1.6710   -0.1190    1.5730 c3        1 X3X      0.131400
      3 C2          3.0130    0.1440    2.2560 c3        1 X3X      0.090100
      4 O2          3.0920    1.5480    2.4740 oh        1 X3X     -0.641300
      5 C1          4.1710   -0.3570    1.3800 c3        1 X3X      0.148900
      6 O1          5.3690    0.1320    1.8950 os        1 X3X     -0.583200
      7 PAO         6.5140   -0.9820    2.3430 p5        1 X3X      1.423800
      8 OAF         6.2330   -2.2280    1.6100 o         1 X3X     -0.814500
      9 OAA         7.7880   -0.2530    2.4470 o         1 X3X     -0.814500
     10 O6          5.9510   -1.2020    3.8850 os        1 X3X     -0.583200
     11 C6          6.3630   -0.1950    4.7620 c3        1 X3X      0.148900
     12 C5          5.7320   -0.4650    6.1290 c3        1 X3X      0.090100
     13 O5          5.8800   -1.8220    6.5250 oh        1 X3X     -0.641300
     14 C4          6.4080    0.3820    7.2080 c3        1 X3X      0.131400
     15 O4          5.8280    0.1710    8.4820 oh        1 X3X     -0.619300
     16 H1          0.8150    1.2200    2.6710 ho        1 X3X      0.414000
     17 H2          1.6450    0.3840    0.5700 h1        1 X3X      0.042200
     18 H3          1.5090   -1.2220    1.4530 h1        1 X3X      0.042200
     19 H4          3.0420   -0.3620    3.2620 h1        1 X3X      0.049700
     20 H5          4.0340    1.7700    2.5130 ho        1 X3X      0.439500
     21 H6          4.1750   -1.4810    1.3450 h1        1 X3X      0.044200
     22 H7          4.0390    0.0550    0.3390 h1        1 X3X      0.044200
     23 H9          6.0270    0.8010    4.3640 h1        1 X3X      0.044200
     24 H10         7.4860   -0.2040    4.8220 h1        1 X3X      0.044200
     25 H11         4.6300   -0.2360    6.0940 h1        1 X3X      0.049700
     26 H12         5.8210   -2.3570    5.7200 ho        1 X3X      0.439500
     27 H13         7.5040    0.1430    7.2530 h1        1 X3X      0.042200
     28 H14         6.2630    1.4720    6.9920 h1        1 X3X      0.042200
     29 H15         5.7540   -0.7850    8.5990 ho        1 X3X      0.414000
@<TRIPOS>BOND
     1    1    2 1   
     2    1   16 1   
     3    2    3 1   
     4    2   17 1   
     5    2   18 1   
     6    3    4 1   
     7    3    5 1   
     8    3   19 1   
     9    4   20 1   
    10    5    6 1   
    11    5   21 1   
    12    5   22 1   
    13    6    7 1   
    14    7    8 1   
    15    7    9 1   
    16    7   10 1   
    17   10   11 1   
    18   11   12 1   
    19   11   23 1   
    20   11   24 1   
    21   12   13 1   
    22   12   14 1   
    23   12   25 1   
    24   13   26 1   
    25   14   15 1   
    26   14   27 1   
    27   14   28 1   
    28   15   29 1   
@<TRIPOS>SUBSTRUCTURE
     1 X3X         1 TEMP              0 ****  ****    0 ROOT
