@<TRIPOS>MOLECULE
molecule
   29    28     1     0     0
SMALL
bcc


@<TRIPOS>ATOM
      1 O3           0.0000     0.0000     0.0000 oh         1 X3X      -0.615800
      2 C3           1.4290     0.0000     0.0000 c3         1 X3X       0.122400
      3 C2           1.9400     0.0000     1.4430 c3         1 X3X       0.142100
      4 O2           1.5620     1.2220     2.0800 oh         1 X3X      -0.594800
      5 C1           3.4650    -0.1260     1.4440 c3         1 X3X       0.222400
      6 O1           3.9310    -0.2420     2.7890 os         1 X3X      -0.600700
      7 PAO          5.4890    -0.3930     3.1670 p5         1 X3X       1.369800
      8 OAF          6.0490    -1.7890     2.5910 o          1 X3X      -0.826500
      9 OAA          6.2520     0.7270     2.5720 o          1 X3X      -0.826500
     10 O6           5.6580    -0.3670     4.7680 os         1 X3X      -0.600700
     11 C6           6.9320    -0.3760     5.4170 c3         1 X3X       0.222400
     12 C5           6.7320    -0.3440     6.9330 c3         1 X3X       0.142100
     13 O5           6.0850    -1.5480     7.3520 oh         1 X3X      -0.594800
     14 C4           8.0920    -0.2280     7.6240 c3         1 X3X       0.122400
     15 O4           7.8990    -0.0820     9.0330 oh         1 X3X      -0.615800
     16 H1          -0.3140    -0.0830    -0.8850 ho         1 X3X       0.389000
     17 H2           1.7900    -0.8850    -0.5110 h1         1 X3X       0.027200
     18 H3           1.7900     0.8840    -0.5110 h1         1 X3X       0.027200
     19 H4           1.5080    -0.8360     1.9790 h1         1 X3X       0.045700
     20 H5           1.0210     1.0320     2.8290 ho         1 X3X       0.399000
     21 H6           3.7550    -1.0060     0.8830 h1         1 X3X       0.038200
     22 H7           3.9000     0.7540     0.9850 h1         1 X3X       0.038200
     23 H9           7.4700    -1.2750     5.1420 h1         1 X3X       0.038200
     24 H10          7.5000     0.4930     5.1090 h1         1 X3X       0.038200
     25 H11          6.1180     0.5080     7.1980 h1         1 X3X       0.045700
     26 H12          5.2660    -1.3360     7.7680 ho         1 X3X       0.399000
     27 H13          8.6200     0.6360     7.2400 h1         1 X3X       0.027200
     28 H14          8.6730    -1.1220     7.4300 h1         1 X3X       0.027200
     29 H15          8.7300     0.0710     9.4500 ho         1 X3X       0.389000
@<TRIPOS>BOND
     1    13    12 1
     2     4     3 1
     3    11    12 1
     4    11    10 1
     5     9     7 1
     6    12    14 1
     7     6     7 1
     8     6     5 1
     9     3     5 1
    10     3     2 1
    11     7    10 1
    12     7     8 1
    13     2     1 1
    14    14    15 1
    15     1    16 1
    16     2    17 1
    17     2    18 1
    18     3    19 1
    19     4    20 1
    20     5    21 1
    21     5    22 1
    22    11    23 1
    23    11    24 1
    24    12    25 1
    25    13    26 1
    26    14    27 1
    27    14    28 1
    28    15    29 1
@<TRIPOS>SUBSTRUCTURE
     1 X3X         1 TEMP              0 ****  ****    0 ROOT
