@<TRIPOS>MOLECULE
X40
   39    41     1     0     0
SMALL
bcc


@<TRIPOS>ATOM
      1 N01          0.0000     0.0000     0.0000 nc         1 X40      -0.691000
      2 N02         -1.9640     0.0010     1.3310 nu         1 X40      -0.234300
      3 N03          5.3120     0.2320     4.6380 nb         1 X40      -0.582000
      4 N04          2.0710     0.0000    -1.1590 nv         1 X40      -0.456500
      5 N05         -6.3960    -1.9920    -3.1510 nz         1 X40      -0.133500
      6 C06          1.8660     0.0000     1.2680 cd         1 X40      -0.337000
      7 C07          1.3130     0.0000     0.0000 cc         1 X40       0.559200
      8 C08         -0.5980     0.0020     1.1560 cd         1 X40       0.535300
      9 C09         -2.8090    -0.1380     0.2250 ca         1 X40       0.098600
     10 C10          3.2390     0.0000     1.5750 c          1 X40       0.721300
     11 C11          3.6840    -0.1470     2.9780 ca         1 X40      -0.298900
     12 C12          2.8770    -0.8030     3.9150 ca         1 X40      -0.063000
     13 C13          3.3380    -0.9140     5.2150 ca         1 X40      -0.228300
     14 C14          4.5720    -0.3810     5.5430 ca         1 X40       0.437200
     15 C15          4.9150     0.3630     3.3900 ca         1 X40       0.471200
     16 C16         -2.3700    -0.8110    -0.9080 ca         1 X40      -0.155500
     17 C17         -3.2070    -0.9460    -1.9980 ca         1 X40       0.041500
     18 C18         -4.4820    -0.4120    -1.9620 ca         1 X40      -0.265500
     19 C19         -4.9230     0.2600    -0.8360 ca         1 X40       0.041500
     20 C20         -4.0930     0.3920     0.2600 ca         1 X40      -0.155500
     21 O21          4.0620     0.1230     0.6840 o          1 X40      -0.602100
     22 O22         -4.7040    -0.7870    -4.4820 o          1 X40      -0.498800
     23 O23         -6.4940     0.4710    -3.2720 o          1 X40      -0.498800
     24 S24          0.5410     0.0020     2.4300 ss         1 X40      -0.242300
     25 S25         -5.5460    -0.5860    -3.3560 sy         1 X40       0.932200
     26 HN02        -2.3510     0.0660     2.2510 hn         1 X40       0.304800
     27 HN04         3.0710     0.0140    -1.1030 hn         1 X40       0.294300
     28 HN0A         1.6200    -0.0040    -2.0530 hn         1 X40       0.294300
     29 HN05        -5.7590    -2.7630    -3.1060 hn         1 X40       0.311800
     30 HN0B        -6.9210    -1.9440    -2.3000 hn         1 X40       0.311800
     31 H12          1.9150    -1.2110     3.6300 ha         1 X40       0.128000
     32 H13          2.7410    -1.4150     5.9670 ha         1 X40       0.117000
     33 H14          4.9360    -0.4670     6.5590 h4         1 X40      -0.015900
     34 H15          5.5510     0.8720     2.6750 h4         1 X40      -0.000900
     35 H16         -1.3710    -1.2300    -0.9360 ha         1 X40       0.150500
     36 H17         -2.8640    -1.4710    -2.8810 ha         1 X40       0.123000
     37 H19         -5.9230     0.6750    -0.8110 ha         1 X40       0.123000
     38 H20         -4.4390     0.9180     1.1410 ha         1 X40       0.150500
     39 H053        -7.0080    -2.1290    -3.9300 hn         1 X40       0.311800
@<TRIPOS>BOND
     1     1     7 1   
     2     1     8 2   
     3     2     8 1   
     4     2     9 1   
     5     2    26 1   
     6     3    14 ar  
     7     3    15 ar  
     8     4     7 1   
     9     4    27 1   
    10     4    28 1   
    11     5    25 1   
    12     5    29 1   
    13     5    30 1   
    14     5    39 1   
    15     6     7 2   
    16     6    10 1   
    17     6    24 1   
    18     8    24 1   
    19     9    16 ar  
    20     9    20 ar  
    21    10    11 1   
    22    10    21 2   
    23    11    12 ar  
    24    11    15 ar  
    25    12    13 ar  
    26    12    31 1   
    27    13    14 ar  
    28    13    32 1   
    29    14    33 1   
    30    15    34 1   
    31    16    17 ar  
    32    16    35 1   
    33    17    18 ar  
    34    17    36 1   
    35    18    19 ar  
    36    18    25 1   
    37    19    20 ar  
    38    19    37 1   
    39    20    38 1   
    40    22    25 2   
    41    23    25 2   
@<TRIPOS>SUBSTRUCTURE
     1 X40         1 TEMP              0 ****  ****    0 ROOT
