@<TRIPOS>MOLECULE
molecule
   97    96     1     0     0
SMALL
bcc


@<TRIPOS>ATOM
      1 O1           0.0000     0.0000     0.0000 o          1 X41      -0.877500
      2 O2           2.0600     1.2630    -0.7270 o          1 X41      -0.877500
      3 P1           1.5450     0.0000     0.0000 p5         1 X41       1.153900
      4 O3           2.0810     0.0000     1.5180 o          1 X41      -0.877500
      5 O4           2.0820    -1.3140    -0.7600 os         1 X41      -0.523200
      6 C1           1.4810    -1.3170    -2.0550 c3         1 X41       0.144400
      7 C2           1.9520    -2.5480    -2.8340 c3         1 X41       0.145100
      8 C3           3.4820    -2.5710    -2.8710 c3         1 X41       0.172400
      9 O5           3.9990    -2.5100    -1.5170 os         1 X41      -0.334900
     10 C4           5.3250    -2.5180    -1.3040 c          1 X41       0.645100
     11 O6           6.0870    -2.5770    -2.2400 o          1 X41      -0.623000
     12 C5           5.8630    -2.4540     0.1030 c3         1 X41      -0.125400
     13 C6           7.3930    -2.4780     0.0640 c3         1 X41      -0.071400
     14 C7           7.9390    -2.4120     1.4930 c3         1 X41      -0.084400
     15 C8           9.4680    -2.4370     1.4550 c3         1 X41      -0.078400
     16 C9          10.0150    -2.3720     2.8820 c3         1 X41      -0.091400
     17 C10         11.5440    -2.3960     2.8450 c3         1 X41      -0.095400
     18 C11         12.0910    -2.3310     4.2730 c3         1 X41       0.061800
     19 C12         13.5960    -2.3540     4.2360 c2         1 X41      -0.247200
     20 C13         14.2820    -1.4330     4.8650 c2         1 X41      -0.277200
     21 C14         13.5750    -0.4500     5.7630 c3         1 X41       0.063800
     22 C15         14.2270    -0.4660     7.1480 c3         1 X41      -0.095400
     23 C16         13.5090     0.5320     8.0600 c3         1 X41      -0.093400
     24 C17         14.1610     0.5170     9.4440 c3         1 X41      -0.090100
     25 O7           1.4650    -3.7490    -2.1800 os         1 X41      -0.405900
     26 C18          0.2750    -4.2660    -2.5260 c          1 X41       0.644100
     27 O8          -0.3910    -3.7300    -3.3800 o          1 X41      -0.580000
     28 C19         -0.2310    -5.5130    -1.8480 c3         1 X41      -0.126400
     29 C20         -1.5990    -5.8860    -2.4220 c3         1 X41      -0.071400
     30 C21         -2.1120    -7.1520    -1.7330 c3         1 X41      -0.084400
     31 C22         -3.4810    -7.5250    -2.3080 c3         1 X41      -0.080400
     32 C23         -3.9940    -8.7920    -1.6200 c3         1 X41      -0.082400
     33 C24         -5.3630    -9.1650    -2.1930 c3         1 X41      -0.082400
     34 C25         -5.8760   -10.4320    -1.5060 c3         1 X41      -0.082400
     35 C26         -7.2440   -10.8050    -2.0790 c3         1 X41      -0.082400
     36 C27         -7.7580   -12.0710    -1.3910 c3         1 X41      -0.082400
     37 C28         -9.1260   -12.4450    -1.9650 c3         1 X41      -0.082400
     38 C29         -9.6390   -13.7110    -1.2770 c3         1 X41      -0.081400
     39 C30        -11.0080   -14.0840    -1.8500 c3         1 X41      -0.084400
     40 C31        -11.5210   -15.3510    -1.1630 c3         1 X41      -0.092100
     41 H2           1.7690    -0.4200    -2.5890 h1         1 X41       0.058200
     42 H3           0.4030    -1.3460    -1.9530 h1         1 X41       0.058200
     43 H4           1.5670    -2.5050    -3.8450 h1         1 X41       0.046700
     44 H5           3.8180    -3.4850    -3.3450 h1         1 X41       0.033200
     45 H6           3.8420    -1.7190    -3.4340 h1         1 X41       0.033200
     46 H7           5.5280    -1.5390     0.5770 hc         1 X41       0.090700
     47 H8           5.5030    -3.3060     0.6670 hc         1 X41       0.090700
     48 H9           7.7280    -3.3930    -0.4090 hc         1 X41       0.045700
     49 H10          7.7530    -1.6270    -0.5000 hc         1 X41       0.045700
     50 H11          7.5780    -3.2630     2.0570 hc         1 X41       0.045700
     51 H12          7.6040    -1.4970     1.9650 hc         1 X41       0.045700
     52 H13          9.8290    -1.5860     0.8900 hc         1 X41       0.038200
     53 H14          9.8030    -3.3520     0.9820 hc         1 X41       0.038200
     54 H15          9.6540    -3.2230     3.4470 hc         1 X41       0.039200
     55 H16          9.6800    -1.4570     3.3550 hc         1 X41       0.039200
     56 H17         11.8790    -3.3110     2.3720 hc         1 X41       0.049700
     57 H18         11.9050    -1.5450     2.2810 hc         1 X41       0.049700
     58 H19         11.7300    -3.1820     4.8370 hc         1 X41       0.038700
     59 H20         11.7550    -1.4160     4.7460 hc         1 X41       0.038700
     60 H21         13.0520    -2.7910     5.0640 ha         1 X41       0.062000
     61 H22         13.8220    -0.5390     4.4610 ha         1 X41       0.066000
     62 H23         13.6500     0.5440     5.3400 hc         1 X41       0.039700
     63 H24         12.5320    -0.7280     5.8520 hc         1 X41       0.039700
     64 H25         15.2700    -0.1880     7.0590 hc         1 X41       0.047700
     65 H26         14.1530    -1.4600     7.5710 hc         1 X41       0.047700
     66 H27         12.4660     0.2540     8.1490 hc         1 X41       0.039700
     67 H28         13.5830     1.5260     7.6370 hc         1 X41       0.039700
     68 H29         15.2040     0.7940     9.3550 hc         1 X41       0.029033
     69 H30         13.6530     1.2230    10.0900 hc         1 X41       0.029033
     70 H31         14.0870    -0.4780     9.8670 hc         1 X41       0.029033
     71 H32          0.4660    -6.3250    -2.0190 hc         1 X41       0.067200
     72 H33         -0.3220    -5.3340    -0.7840 hc         1 X41       0.067200
     73 H34         -2.2960    -5.0740    -2.2510 hc         1 X41       0.057200
     74 H35         -1.5070    -6.0650    -3.4870 hc         1 X41       0.057200
     75 H36         -1.4160    -7.9640    -1.9040 hc         1 X41       0.037700
     76 H37         -2.2040    -6.9730    -0.6690 hc         1 X41       0.037700
     77 H38         -3.3890    -7.7040    -3.3720 hc         1 X41       0.042200
     78 H39         -4.1770    -6.7140    -2.1360 hc         1 X41       0.042200
     79 H40         -3.2970    -9.6030    -1.7920 hc         1 X41       0.039200
     80 H41         -4.0850    -8.6130    -0.5560 hc         1 X41       0.039200
     81 H42         -5.2720    -9.3440    -3.2580 hc         1 X41       0.040700
     82 H43         -6.0600    -8.3540    -2.0220 hc         1 X41       0.040700
     83 H44         -5.1790   -11.2430    -1.6770 hc         1 X41       0.039700
     84 H45         -5.9680   -10.2530    -0.4410 hc         1 X41       0.039700
     85 H46         -7.9410    -9.9930    -1.9090 hc         1 X41       0.040200
     86 H47         -7.1530   -10.9850    -3.1440 hc         1 X41       0.040200
     87 H48         -7.8500   -11.8920    -0.3270 hc         1 X41       0.040200
     88 H49         -7.0610   -12.8830    -1.5620 hc         1 X41       0.040200
     89 H50         -9.0340   -12.6240    -3.0290 hc         1 X41       0.040700
     90 H51         -9.8230   -11.6330    -1.7940 hc         1 X41       0.040700
     91 H52         -8.9420   -14.5230    -1.4490 hc         1 X41       0.040200
     92 H53         -9.7300   -13.5320    -0.2130 hc         1 X41       0.040200
     93 H54        -10.9170   -14.2630    -2.9150 hc         1 X41       0.039200
     94 H55        -11.7040   -13.2730    -1.6780 hc         1 X41       0.039200
     95 H56        -12.4900   -15.6140    -1.5690 hc         1 X41       0.030367
     96 H57        -11.6120   -15.1720    -0.0980 hc         1 X41       0.030367
     97 H58        -10.8240   -16.1620    -1.3340 hc         1 X41       0.030367
@<TRIPOS>BOND
     1     1     3 1
     2     2     3 1
     3     3     4 1
     4     3     5 1
     5     5     6 1
     6     6     7 1
     7     6    41 1
     8     6    42 1
     9     7     8 1
    10     7    25 1
    11     7    43 1
    12     8     9 1
    13     8    44 1
    14     8    45 1
    15     9    10 1
    16    10    11 2
    17    10    12 1
    18    12    13 1
    19    12    46 1
    20    12    47 1
    21    13    14 1
    22    13    48 1
    23    13    49 1
    24    14    15 1
    25    14    50 1
    26    14    51 1
    27    15    16 1
    28    15    52 1
    29    15    53 1
    30    16    17 1
    31    16    54 1
    32    16    55 1
    33    17    18 1
    34    17    56 1
    35    17    57 1
    36    18    19 1
    37    18    58 1
    38    18    59 1
    39    19    20 2
    40    19    60 1
    41    20    21 1
    42    20    61 1
    43    21    22 1
    44    21    62 1
    45    21    63 1
    46    22    23 1
    47    22    64 1
    48    22    65 1
    49    23    24 1
    50    23    66 1
    51    23    67 1
    52    24    68 1
    53    24    69 1
    54    24    70 1
    55    25    26 1
    56    26    27 2
    57    26    28 1
    58    28    29 1
    59    28    71 1
    60    28    72 1
    61    29    30 1
    62    29    73 1
    63    29    74 1
    64    30    31 1
    65    30    75 1
    66    30    76 1
    67    31    32 1
    68    31    77 1
    69    31    78 1
    70    32    33 1
    71    32    79 1
    72    32    80 1
    73    33    34 1
    74    33    81 1
    75    33    82 1
    76    34    35 1
    77    34    83 1
    78    34    84 1
    79    35    36 1
    80    35    85 1
    81    35    86 1
    82    36    37 1
    83    36    87 1
    84    36    88 1
    85    37    38 1
    86    37    89 1
    87    37    90 1
    88    38    39 1
    89    38    91 1
    90    38    92 1
    91    39    40 1
    92    39    93 1
    93    39    94 1
    94    40    95 1
    95    40    96 1
    96    40    97 1
@<TRIPOS>SUBSTRUCTURE
     1 X41         1 TEMP              0 ****  ****    0 ROOT
