@<TRIPOS>MOLECULE
X41
   97    96     1     0     0
SMALL
bcc


@<TRIPOS>ATOM
      1 O1          5.9840    0.7630   -0.1370 o         1 X41     -0.918500
      2 O2          6.6920   -1.5700   -0.9050 o         1 X41     -0.918500
      3 P1          6.2570   -0.6650    0.2290 p5        1 X41      1.331900
      4 O3          6.9180   -0.9380    1.5510 o         1 X41     -0.918500
      5 O4          4.6660   -1.3340    0.4500 os        1 X41     -0.566200
      6 C1          3.6280   -0.6520   -0.1150 c3        1 X41      0.211400
      7 C2          2.9710   -1.3870   -1.3130 c3        1 X41      0.080100
      8 C3          4.0040   -1.8520   -2.3420 c3        1 X41      0.054400
      9 O5          3.6710   -3.1420   -2.8690 os        1 X41     -0.438900
     10 C4          4.1460   -4.2620   -2.2370 c         1 X41      0.659100
     11 O6          3.6880   -5.2950   -2.7600 o         1 X41     -0.620000
     12 C5          5.0660   -4.1570   -1.0770 c3        1 X41     -0.214400
     13 C6          5.4990   -5.5010   -0.5380 c3        1 X41     -0.053400
     14 C7          6.1720   -5.3540    0.8120 c3        1 X41     -0.066400
     15 C8          7.5420   -4.7130    0.7150 c3        1 X41     -0.097400
     16 C9          7.9380   -4.0680    2.0270 c3        1 X41     -0.063400
     17 C10         9.3420   -3.5000    1.9680 c3        1 X41     -0.057400
     18 C11         9.4600   -2.2940    2.8790 c3        1 X41     -0.095200
     19 C12        10.8100   -1.7010    2.8480 c2        1 X41     -0.168200
     20 C13        11.4280   -1.1120    3.8800 c2        1 X41     -0.171200
     21 C14        10.8360   -0.9810    5.2320 c3        1 X41     -0.100200
     22 C15        11.7070   -0.1590    6.1610 c3        1 X41     -0.051400
     23 C16        11.0810   -0.0330    7.5330 c3        1 X41     -0.098400
     24 C17        11.9380    0.7850    8.4640 c3        1 X41     -0.079100
     25 O7          2.2920   -2.5510   -0.7900 os        1 X41     -0.409900
     26 C18         1.0910   -2.8990   -1.3100 c         1 X41      0.644100
     27 O8          0.4120   -2.0920   -1.9580 o         1 X41     -0.594000
     28 C19         0.7370   -4.3200   -0.9760 c3        1 X41     -0.147400
     29 C20        -0.7140   -4.6210   -1.2720 c3        1 X41     -0.071400
     30 C21        -1.0200   -6.0860   -1.0430 c3        1 X41     -0.080400
     31 C22        -2.4730   -6.3950   -1.3330 c3        1 X41     -0.077400
     32 C23        -2.7800   -7.8600   -1.1080 c3        1 X41     -0.079400
     33 C24        -4.2320   -8.1700   -1.4000 c3        1 X41     -0.078400
     34 C25        -4.5380   -9.6350   -1.1740 c3        1 X41     -0.079400
     35 C26        -5.9910   -9.9460   -1.4660 c3        1 X41     -0.078400
     36 C27        -6.2960  -11.4110   -1.2390 c3        1 X41     -0.079400
     37 C28        -7.7490  -11.7230   -1.5310 c3        1 X41     -0.078400
     38 C29        -8.0540  -13.1870   -1.3040 c3        1 X41     -0.079400
     39 C30        -9.5060  -13.5000   -1.5960 c3        1 X41     -0.080400
     40 C31        -9.8150  -14.9580   -1.3710 c3        1 X41     -0.091100
     41 H2          3.9620    0.3560   -0.5030 h1        1 X41      0.019200
     42 H3          2.8060   -0.5110    0.6490 h1        1 X41      0.019200
     43 H4          2.2170   -0.7050   -1.7910 h1        1 X41      0.040700
     44 H5          5.0520   -1.8120   -1.8830 h1        1 X41      0.117700
     45 H6          3.9610   -1.1920   -3.2500 h1        1 X41      0.117700
     46 H7          4.5430   -3.5470   -0.2780 hc        1 X41      0.154700
     47 H8          5.9720   -3.5300   -1.3610 hc        1 X41      0.154700
     48 H9          6.1980   -5.9920   -1.2630 hc        1 X41      0.023200
     49 H10         4.6050   -6.1730   -0.4370 hc        1 X41      0.023200
     50 H11         6.2640   -6.3670    1.2890 hc        1 X41      0.021200
     51 H12         5.5190   -4.7280    1.4780 hc        1 X41      0.021200
     52 H13         7.5270   -3.9070   -0.0740 hc        1 X41      0.076200
     53 H14         8.2990   -5.4820    0.4110 hc        1 X41      0.076200
     54 H15         7.2170   -3.2220    2.2350 hc        1 X41      0.014200
     55 H16         7.8620   -4.8100    2.8640 hc        1 X41      0.014200
     56 H17        10.0910   -4.2840    2.2550 hc        1 X41      0.010200
     57 H18         9.5720   -3.1820    0.9160 hc        1 X41      0.010200
     58 H19         8.6930   -1.5200    2.5210 hc        1 X41      0.109700
     59 H20         9.1730   -2.5790    3.9250 hc        1 X41      0.109700
     60 H21        11.3120   -1.7390    1.8650 ha        1 X41      0.076000
     61 H22        12.4270   -0.6690    3.7510 ha        1 X41      0.075000
     62 H23         9.8200   -0.5040    5.1510 hc        1 X41      0.106200
     63 H24        10.6780   -2.0020    5.6770 hc        1 X41      0.106200
     64 H25        11.8610    0.8620    5.7230 hc        1 X41      0.006700
     65 H26        12.7190   -0.6360    6.2530 hc        1 X41      0.006700
     66 H27        10.0690    0.4430    7.4360 hc        1 X41      0.074200
     67 H28        10.9230   -1.0550    7.9670 hc        1 X41      0.074200
     68 H29        12.9430    0.3150    8.5910 hc        1 X41      0.012367
     69 H30        11.4580    0.8660    9.4690 hc        1 X41      0.012367
     70 H31        12.0840    1.8160    8.0590 hc        1 X41      0.012367
     71 H32         0.9720   -4.5120    0.1030 hc        1 X41      0.086700
     72 H33         1.4180   -4.9730   -1.5930 hc        1 X41      0.086700
     73 H34        -0.9420   -4.3410   -2.3340 hc        1 X41      0.046700
     74 H35        -1.3710   -3.9870   -0.6190 hc        1 X41      0.046700
     75 H36        -0.7810   -6.3590    0.0190 hc        1 X41      0.041700
     76 H37        -0.3610   -6.7130   -1.7010 hc        1 X41      0.041700
     77 H38        -3.1300   -5.7670   -0.6750 hc        1 X41      0.036700
     78 H39        -2.7090   -6.1200   -2.3950 hc        1 X41      0.036700
     79 H40        -2.1210   -8.4860   -1.7660 hc        1 X41      0.039200
     80 H41        -2.5420   -8.1340   -0.0460 hc        1 X41      0.039200
     81 H42        -4.4690   -7.8960   -2.4620 hc        1 X41      0.036700
     82 H43        -4.8900   -7.5430   -0.7430 hc        1 X41      0.036700
     83 H44        -4.3010   -9.9090   -0.1120 hc        1 X41      0.039200
     84 H45        -3.8800  -10.2620   -1.8310 hc        1 X41      0.039200
     85 H46        -6.6490   -9.3190   -0.8090 hc        1 X41      0.037700
     86 H47        -6.2270   -9.6730   -2.5280 hc        1 X41      0.037700
     87 H48        -6.0590  -11.6850   -0.1770 hc        1 X41      0.039200
     88 H49        -5.6380  -12.0390   -1.8960 hc        1 X41      0.039200
     89 H50        -8.4070  -11.0950   -0.8740 hc        1 X41      0.038200
     90 H51        -7.9850  -11.4490   -2.5930 hc        1 X41      0.038200
     91 H52        -7.8180  -13.4610   -0.2420 hc        1 X41      0.038700
     92 H53        -7.3960  -13.8150   -1.9610 hc        1 X41      0.038700
     93 H54        -9.7410  -13.2250   -2.6580 hc        1 X41      0.037700
     94 H55       -10.1630  -12.8700   -0.9400 hc        1 X41      0.037700
     95 H56       -10.8900  -15.1670   -1.5920 hc        1 X41      0.030033
     96 H57        -9.6100  -15.2450   -0.3120 hc        1 X41      0.030033
     97 H58        -9.1870  -15.6000   -2.0350 hc        1 X41      0.030033
@<TRIPOS>BOND
     1    1    3 1   
     2    2    3 1   
     3    3    4 1   
     4    3    5 1   
     5    5    6 1   
     6    6    7 1   
     7    6   41 1   
     8    6   42 1   
     9    7    8 1   
    10    7   25 1   
    11    7   43 1   
    12    8    9 1   
    13    8   44 1   
    14    8   45 1   
    15    9   10 1   
    16   10   11 2   
    17   10   12 1   
    18   12   13 1   
    19   12   46 1   
    20   12   47 1   
    21   13   14 1   
    22   13   48 1   
    23   13   49 1   
    24   14   15 1   
    25   14   50 1   
    26   14   51 1   
    27   15   16 1   
    28   15   52 1   
    29   15   53 1   
    30   16   17 1   
    31   16   54 1   
    32   16   55 1   
    33   17   18 1   
    34   17   56 1   
    35   17   57 1   
    36   18   19 1   
    37   18   58 1   
    38   18   59 1   
    39   19   20 2   
    40   19   60 1   
    41   20   21 1   
    42   20   61 1   
    43   21   22 1   
    44   21   62 1   
    45   21   63 1   
    46   22   23 1   
    47   22   64 1   
    48   22   65 1   
    49   23   24 1   
    50   23   66 1   
    51   23   67 1   
    52   24   68 1   
    53   24   69 1   
    54   24   70 1   
    55   25   26 1   
    56   26   27 2   
    57   26   28 1   
    58   28   29 1   
    59   28   71 1   
    60   28   72 1   
    61   29   30 1   
    62   29   73 1   
    63   29   74 1   
    64   30   31 1   
    65   30   75 1   
    66   30   76 1   
    67   31   32 1   
    68   31   77 1   
    69   31   78 1   
    70   32   33 1   
    71   32   79 1   
    72   32   80 1   
    73   33   34 1   
    74   33   81 1   
    75   33   82 1   
    76   34   35 1   
    77   34   83 1   
    78   34   84 1   
    79   35   36 1   
    80   35   85 1   
    81   35   86 1   
    82   36   37 1   
    83   36   87 1   
    84   36   88 1   
    85   37   38 1   
    86   37   89 1   
    87   37   90 1   
    88   38   39 1   
    89   38   91 1   
    90   38   92 1   
    91   39   40 1   
    92   39   93 1   
    93   39   94 1   
    94   40   95 1   
    95   40   96 1   
    96   40   97 1   
@<TRIPOS>SUBSTRUCTURE
     1 X41         1 TEMP              0 ****  ****    0 ROOT
