@<TRIPOS>MOLECULE
molecule
   40    42     1     0     0
SMALL
bcc


@<TRIPOS>ATOM
      1 N01          0.0000     0.0000     0.0000 nc         1 X42      -0.819000
      2 N02         -1.9640     0.0010     1.3300 nu         1 X42      -0.733300
      3 N03          2.0710    -0.0010    -1.1600 nv         1 X42      -0.970500
      4 N04         -6.4850     1.6030    -3.2180 nz         1 X42      -0.806500
      5 C05          1.8660     0.0000     1.2680 cd         1 X42      -0.351000
      6 C06          1.3120     0.0000     0.0000 cc         1 X42       0.759200
      7 C07         -0.5980     0.0010     1.1560 cd         1 X42       0.696300
      8 C08         -2.8090     0.0590     0.2180 ca         1 X42       0.264600
      9 C09          3.2400     0.0010     1.5740 c          1 X42       0.642300
     10 C10          3.6850     0.1720     2.9740 ca         1 X42      -0.141600
     11 C11          4.9070    -0.3580     3.3910 ca         1 X42      -0.083000
     12 C12          5.3190    -0.1950     4.6980 ca         1 X42      -0.106000
     13 C13          4.5220     0.4910     5.5970 ca         1 X42      -0.139000
     14 C14          3.3070     1.0180     5.1920 ca         1 X42       0.129900
     15 C15          2.8870     0.8670     3.8830 ca         1 X42      -0.156000
     16 C16         -4.0560    -0.5520     0.2590 ca         1 X42      -0.164000
     17 C17         -4.8900    -0.4930    -0.8400 ca         1 X42      -0.006000
     18 C18         -4.4840     0.1740    -1.9820 ca         1 X42      -0.375500
     19 C19         -3.2440     0.7850    -2.0260 ca         1 X42      -0.006000
     20 C20         -2.4080     0.7340    -0.9280 ca         1 X42      -0.164000
     21 O21          4.0620    -0.1410     0.6860 o          1 X42      -0.549100
     22 O22         -6.4310    -0.8630    -3.2750 o          1 X42      -0.523300
     23 O23         -4.7150     0.4700    -4.5110 o          1 X42      -0.523300
     24 F24          2.5340     1.6880     6.0750 f          1 X42      -0.137900
     25 S25          0.5420     0.0020     2.4290 ss         1 X42      -0.112300
     26 S26         -5.5500     0.2470    -3.3830 sy         1 X42       1.224200
     27 HN02        -2.3510    -0.0550     2.2510 hn         1 X42       0.480800
     28 HN03         3.0040     0.3620    -1.1460 hn         1 X42       0.461300
     29 HN0A         1.6610    -0.2950    -2.0240 hn         1 X42       0.461300
     30 HN04        -7.1120     1.6740    -3.9950 hn         1 X42       0.490467
     31 HN0B        -7.0120     1.5440    -2.3690 hn         1 X42       0.490467
     32 H11          5.5320    -0.8960     2.6890 ha         1 X42       0.158000
     33 H12          6.2680    -0.6060     5.0210 ha         1 X42       0.150000
     34 H13          4.8490     0.6130     6.6230 ha         1 X42       0.154000
     35 H15          1.9370     1.2800     3.5670 ha         1 X42       0.144000
     36 H16         -4.3740    -1.0750     1.1530 ha         1 X42       0.179500
     37 H17         -5.8620    -0.9700    -0.8080 ha         1 X42       0.155500
     38 H19         -2.9300     1.3090    -2.9200 ha         1 X42       0.155500
     39 H20         -1.4370     1.2130    -0.9630 ha         1 X42       0.179500
     40 H043        -5.8980     2.4140    -3.2070 hn         1 X42       0.490467
@<TRIPOS>BOND
     1     6     1 1
     2     1     7 2
     3     7     2 1
     4     2     8 1
     5     2    27 1
     6     3     6 1
     7     3    28 1
     8     3    29 1
     9    26     4 1
    10     4    30 1
    11     4    31 1
    12     6     5 2
    13     9     5 1
    14     5    25 1
    15     7    25 1
    16     8    16 ar
    17     8    20 ar
    18    21     9 2
    19     9    10 1
    20    10    15 ar
    21    10    11 ar
    22    11    12 ar
    23    11    32 1
    24    12    13 ar
    25    12    33 1
    26    14    13 ar
    27    13    34 1
    28    15    14 ar
    29    14    24 1
    30    15    35 1
    31    16    17 ar
    32    16    36 1
    33    17    18 ar
    34    17    37 1
    35    19    18 ar
    36    18    26 1
    37    20    19 ar
    38    19    38 1
    39    20    39 1
    40    22    26 2
    41    26    23 2
    42    40     4 1
@<TRIPOS>SUBSTRUCTURE
     1 X42         1 TEMP              0 ****  ****    0 ROOT
