@<TRIPOS>MOLECULE
X42
   40    42     1     0     0
SMALL
bcc


@<TRIPOS>ATOM
      1 N01          0.0000     0.0000     0.0000 nc         1 X42      -0.691000
      2 N02         -1.9640     0.0010     1.3300 nu         1 X42      -0.236300
      3 N03          2.0710    -0.0010    -1.1600 nv         1 X42      -0.462500
      4 N04         -6.4850     1.6030    -3.2180 nz         1 X42      -0.134500
      5 C05          1.8660     0.0000     1.2680 cd         1 X42      -0.324000
      6 C06          1.3120     0.0000     0.0000 cc         1 X42       0.556200
      7 C07         -0.5980     0.0010     1.1560 cd         1 X42       0.533300
      8 C08         -2.8090     0.0590     0.2180 ca         1 X42       0.098600
      9 C09          3.2400     0.0010     1.5740 c          1 X42       0.709300
     10 C10          3.6850     0.1720     2.9740 ca         1 X42      -0.150600
     11 C11          4.9070    -0.3580     3.3910 ca         1 X42      -0.048000
     12 C12          5.3190    -0.1950     4.6980 ca         1 X42      -0.080000
     13 C13          4.5220     0.4910     5.5970 ca         1 X42      -0.103000
     14 C14          3.3070     1.0180     5.1920 ca         1 X42       0.100900
     15 C15          2.8870     0.8670     3.8830 ca         1 X42      -0.131000
     16 C16         -4.0560    -0.5520     0.2590 ca         1 X42      -0.151500
     17 C17         -4.8900    -0.4930    -0.8400 ca         1 X42       0.040000
     18 C18         -4.4840     0.1740    -1.9820 ca         1 X42      -0.264500
     19 C19         -3.2440     0.7850    -2.0260 ca         1 X42       0.040000
     20 C20         -2.4080     0.7340    -0.9280 ca         1 X42      -0.151500
     21 O21          4.0620    -0.1410     0.6860 o          1 X42      -0.592100
     22 O22         -6.4310    -0.8630    -3.2750 o          1 X42      -0.499300
     23 O23         -4.7150     0.4700    -4.5110 o          1 X42      -0.499300
     24 F24          2.5340     1.6880     6.0750 f          1 X42      -0.125900
     25 S25          0.5420     0.0020     2.4290 ss         1 X42      -0.233300
     26 S26         -5.5500     0.2470    -3.3830 sy         1 X42       0.932200
     27 HN02        -2.3510    -0.0550     2.2510 hn         1 X42       0.304800
     28 HN03         3.0040     0.3620    -1.1460 hn         1 X42       0.289300
     29 HN0A         1.6610    -0.2950    -2.0240 hn         1 X42       0.289300
     30 HN04        -7.1120     1.6740    -3.9950 hn         1 X42       0.312133
     31 HN0B        -7.0120     1.5440    -2.3690 hn         1 X42       0.312133
     32 H11          5.5320    -0.8960     2.6890 ha         1 X42       0.126000
     33 H12          6.2680    -0.6060     5.0210 ha         1 X42       0.116000
     34 H13          4.8490     0.6130     6.6230 ha         1 X42       0.123000
     35 H15          1.9370     1.2800     3.5670 ha         1 X42       0.138000
     36 H16         -4.3740    -1.0750     1.1530 ha         1 X42       0.149500
     37 H17         -5.8620    -0.9700    -0.8080 ha         1 X42       0.123000
     38 H19         -2.9300     1.3090    -2.9200 ha         1 X42       0.123000
     39 H20         -1.4370     1.2130    -0.9630 ha         1 X42       0.149500
     40 H043        -5.8980     2.4140    -3.2070 hn         1 X42       0.312133
@<TRIPOS>BOND
     1     1     6 1   
     2     1     7 2   
     3     2     7 1   
     4     2     8 1   
     5     2    27 1   
     6     3     6 1   
     7     3    28 1   
     8     3    29 1   
     9     4    26 1   
    10     4    30 1   
    11     4    31 1   
    12     4    40 1   
    13     5     6 2   
    14     5     9 1   
    15     5    25 1   
    16     7    25 1   
    17     8    16 ar  
    18     8    20 ar  
    19     9    10 1   
    20     9    21 2   
    21    10    11 ar  
    22    10    15 ar  
    23    11    12 ar  
    24    11    32 1   
    25    12    13 ar  
    26    12    33 1   
    27    13    14 ar  
    28    13    34 1   
    29    14    15 ar  
    30    14    24 1   
    31    15    35 1   
    32    16    17 ar  
    33    16    36 1   
    34    17    18 ar  
    35    17    37 1   
    36    18    19 ar  
    37    18    26 1   
    38    19    20 ar  
    39    19    38 1   
    40    20    39 1   
    41    22    26 2   
    42    23    26 2   
@<TRIPOS>SUBSTRUCTURE
     1 X42         1 TEMP              0 ****  ****    0 ROOT
