@<TRIPOS>MOLECULE
X43
   42    44     1     0     0
SMALL
bcc


@<TRIPOS>ATOM
      1 N1           0.0000     0.0000     0.0000 nc         1 X43      -0.668000
      2 C2           1.3120     0.0000     0.0000 cc         1 X43       0.565200
      3 N3           2.0720    -0.0020    -1.1580 nv         1 X43      -0.544500
      4 C4           1.8660     0.0000     1.2680 cd         1 X43      -0.271000
      5 C5           3.2390    -0.0000     1.5750 c          1 X43       0.693300
      6 C6           3.6840    -0.1700     2.9760 ca         1 X43      -0.195600
      7 C7           4.9060     0.3610     3.3920 ca         1 X43       0.051000
      8 C8           5.3140     0.2000     4.7000 ca         1 X43      -0.454200
      9 C9           4.5170    -0.4880     5.5980 ca         1 X43       0.017000
     10 C10          3.3050    -1.0180     5.1910 ca         1 X43      -0.121000
     11 C11          2.8820    -0.8580     3.8880 ca         1 X43      -0.042000
     12 O12          4.0620     0.1400     0.6860 o          1 X43      -0.557100
     13 S13          0.5410     0.0020     2.4300 ss         1 X43      -0.243300
     14 C14         -0.5980     0.0020     1.1560 cd         1 X43       0.523300
     15 N15         -1.9640     0.0030     1.3290 nu         1 X43      -0.239300
     16 C16         -2.8100     0.0610     0.2180 ca         1 X43       0.095600
     17 N17          6.6090     0.7630     5.1440 no         1 X43       1.044200
     18 O18          7.3120     1.3680     4.3550 o          1 X43      -0.440000
     19 O19          6.9720     0.6220     6.2980 o          1 X43      -0.440000
     20 C20         -4.0550    -0.5520     0.2590 ca         1 X43      -0.148500
     21 C21         -4.8890    -0.4930    -0.8420 ca         1 X43       0.039500
     22 C22         -4.4830     0.1740    -1.9820 ca         1 X43      -0.260500
     23 C23         -3.2440     0.7850    -2.0260 ca         1 X43       0.039500
     24 C24         -2.4080     0.7360    -0.9280 ca         1 X43      -0.148500
     25 S25         -5.5490     0.2460    -3.3840 sy         1 X43       0.933200
     26 O26         -4.7140     0.4690    -4.5120 o          1 X43      -0.497800
     27 O27         -6.4290    -0.8640    -3.2770 o          1 X43      -0.497800
     28 N28         -6.4850     1.6030    -3.2190 nz         1 X43      -0.132500
     29 HN3          2.0090    -0.7710    -1.7960 hn         1 X43       0.290300
     30 HN3A         2.6970     0.7560    -1.3480 hn         1 X43       0.290300
     31 H7           5.5310     0.9000     2.6910 ha         1 X43       0.149000
     32 H9           4.8440    -0.6140     6.6230 ha         1 X43       0.137000
     33 H10          2.6840    -1.5540     5.8990 ha         1 X43       0.120000
     34 H11          1.9340    -1.2730     3.5700 ha         1 X43       0.129000
     35 HN15        -2.3510    -0.0420     2.2510 hn         1 X43       0.303800
     36 H20         -4.3730    -1.0760     1.1520 ha         1 X43       0.149500
     37 H21         -5.8610    -0.9710    -0.8110 ha         1 X43       0.124500
     38 H23         -2.9300     1.3090    -2.9210 ha         1 X43       0.124500
     39 H24         -1.4370     1.2150    -0.9630 ha         1 X43       0.149500
     40 HN28        -5.8980     2.4120    -3.1910 hn         1 X43       0.312133
     41 HN2A        -7.1110     1.6720    -3.9970 hn         1 X43       0.312133
     42 H283        -7.0120     1.5430    -2.3710 hn         1 X43       0.312133
@<TRIPOS>BOND
     1     1     2 1   
     2     1    14 2   
     3     2     3 1   
     4     2     4 2   
     5     3    29 1   
     6     3    30 1   
     7     4     5 1   
     8     4    13 1   
     9     5     6 1   
    10     5    12 2   
    11     6     7 ar  
    12     6    11 ar  
    13     7     8 ar  
    14     7    31 1   
    15     8     9 ar  
    16     8    17 1   
    17     9    10 ar  
    18     9    32 1   
    19    10    11 ar  
    20    10    33 1   
    21    11    34 1   
    22    13    14 1   
    23    14    15 1   
    24    15    16 1   
    25    15    35 1   
    26    16    20 ar  
    27    16    24 ar  
    28    17    18 1   
    29    17    19 1   
    30    20    21 ar  
    31    20    36 1   
    32    21    22 ar  
    33    21    37 1   
    34    22    23 ar  
    35    22    25 1   
    36    23    24 ar  
    37    23    38 1   
    38    24    39 1   
    39    25    26 2   
    40    25    27 2   
    41    25    28 1   
    42    28    40 1   
    43    28    41 1   
    44    28    42 1   
@<TRIPOS>SUBSTRUCTURE
     1 X43         1 TEMP              0 ****  ****    0 ROOT
