@<TRIPOS>MOLECULE
molecule
   46    48     1     0     0
SMALL
bcc


@<TRIPOS>ATOM
      1 N01          0.0000     0.0000     0.0000 nc         1 X44      -0.791000
      2 N02         -1.9630    -0.0020     1.3330 nu         1 X44      -0.736300
      3 N03          2.0700     0.0010    -1.1610 nv         1 X44      -1.024500
      4 N04         -6.4900     1.5860    -3.2150 nz         1 X44      -0.807500
      5 N05          5.9290     2.0980     7.3290 nz         1 X44      -0.807500
      6 C06          1.8670     0.0000     1.2670 cd         1 X44      -0.332000
      7 C07          1.3120     0.0000     0.0000 cc         1 X44       0.782200
      8 C08         -0.5970    -0.0010     1.1570 cd         1 X44       0.728300
      9 C09         -2.8100     0.0520     0.2220 ca         1 X44       0.248600
     10 C10          3.2410     0.0020     1.5710 c          1 X44       0.618300
     11 C11          3.6870     0.1720     2.9730 ca         1 X44      -0.061600
     12 C12         -4.0560    -0.5610     0.2650 ca         1 X44      -0.158500
     13 C13         -4.8890    -0.5040    -0.8340 ca         1 X44      -0.003000
     14 C14         -4.4860     0.1620    -1.9770 ca         1 X44      -0.369500
     15 C15         -3.2470     0.7730    -2.0240 ca         1 X44      -0.003000
     16 C16         -2.4100     0.7260    -0.9260 ca         1 X44      -0.158500
     17 C17          4.9070    -0.3630     3.3890 ca         1 X44      -0.101000
     18 C18          5.3180    -0.2010     4.6960 ca         1 X44      -0.030000
     19 C19          4.5230     0.4900     5.5940 ca         1 X44      -0.332500
     20 C20          3.3130     1.0210     5.1870 ca         1 X44      -0.030000
     21 C21          2.8930     0.8720     3.8810 ca         1 X44      -0.101000
     22 O22          4.0630    -0.1380     0.6820 o          1 X44      -0.490100
     23 O23         -6.4320    -0.8800    -3.2670 o          1 X44      -0.515300
     24 O24         -4.7190     0.4530    -4.5060 o          1 X44      -0.515300
     25 O25          5.9710    -0.3630     7.5200 o          1 X44      -0.511800
     26 O26          3.8820     0.9110     8.0330 o          1 X44      -0.511800
     27 S27          0.5440    -0.0000     2.4300 ss         1 X44      -0.168300
     28 S28         -5.5530     0.2300    -3.3780 sy         1 X44       1.232200
     29 S29          5.0550     0.6920     7.2620 sy         1 X44       1.232200
     30 HN02        -2.3490    -0.0280     2.2560 hn         1 X44       0.481800
     31 HN03         2.0330    -0.7820    -1.7830 hn         1 X44       0.462300
     32 HN0A         2.6470     0.7880    -1.3810 hn         1 X44       0.462300
     33 HN04        -7.1130     1.6570    -3.9950 hn         1 X44       0.492800
     34 HN0B        -7.0210     1.5250    -2.3680 hn         1 X44       0.492800
     35 HN05         6.7190     2.0290     6.7190 hn         1 X44       0.494133
     36 HN0C         5.3520     2.8640     7.0430 hn         1 X44       0.494133
     37 H12         -4.3730    -1.0830     1.1600 ha         1 X44       0.178500
     38 H13         -5.8610    -0.9820    -0.8010 ha         1 X44       0.161000
     39 H15         -2.9350     1.2960    -2.9190 ha         1 X44       0.161000
     40 H16         -1.4390     1.2050    -0.9630 ha         1 X44       0.178500
     41 H17          5.5300    -0.9040     2.6870 ha         1 X44       0.176500
     42 H18          6.2650    -0.6150     5.0200 ha         1 X44       0.161000
     43 H20          2.6960     1.5630     5.8940 ha         1 X44       0.161000
     44 H21          1.9450     1.2890     3.5650 ha         1 X44       0.176500
     45 H043        -5.9020     2.3960    -3.1800 hn         1 X44       0.492800
     46 H053         6.2430     2.2500     8.2670 hn         1 X44       0.494133
@<TRIPOS>BOND
     1     7     1 1
     2     1     8 2
     3     8     2 1
     4     2     9 1
     5     2    30 1
     6     3     7 1
     7     3    31 1
     8     3    32 1
     9    28     4 1
    10     4    33 1
    11     4    34 1
    12     5    29 1
    13     5    35 1
    14     5    36 1
    15     7     6 2
    16    10     6 1
    17     6    27 1
    18     8    27 1
    19     9    12 ar
    20     9    16 ar
    21    22    10 2
    22    10    11 1
    23    11    17 ar
    24    11    21 ar
    25    12    13 ar
    26    12    37 1
    27    13    14 ar
    28    13    38 1
    29    15    14 ar
    30    14    28 1
    31    16    15 ar
    32    15    39 1
    33    16    40 1
    34    17    18 ar
    35    17    41 1
    36    18    19 ar
    37    18    42 1
    38    20    19 ar
    39    19    29 1
    40    21    20 ar
    41    20    43 1
    42    21    44 1
    43    23    28 2
    44    28    24 2
    45    29    25 2
    46    29    26 2
    47    45     4 1
    48    46     5 1
@<TRIPOS>SUBSTRUCTURE
     1 X44         1 TEMP              0 ****  ****    0 ROOT
