@<TRIPOS>MOLECULE
X44
   46    48     1     0     0
SMALL
bcc


@<TRIPOS>ATOM
      1 N01          0.0000     0.0000     0.0000 nc         1 X44      -0.675000
      2 N02         -1.9630    -0.0020     1.3330 nu         1 X44      -0.238300
      3 N03          2.0700     0.0010    -1.1610 nv         1 X44      -0.548500
      4 N04         -6.4900     1.5860    -3.2150 nz         1 X44      -0.132500
      5 N05          5.9290     2.0980     7.3290 nz         1 X44      -0.129500
      6 C06          1.8670     0.0000     1.2670 cd         1 X44      -0.312000
      7 C07          1.3120     0.0000     0.0000 cc         1 X44       0.599200
      8 C08         -0.5970    -0.0010     1.1570 cd         1 X44       0.559300
      9 C09         -2.8100     0.0520     0.2220 ca         1 X44       0.081600
     10 C10          3.2410     0.0020     1.5710 c          1 X44       0.676300
     11 C11          3.6870     0.1720     2.9730 ca         1 X44      -0.061600
     12 C12         -4.0560    -0.5610     0.2650 ca         1 X44      -0.142000
     13 C13         -4.8890    -0.5040    -0.8340 ca         1 X44       0.043000
     14 C14         -4.4860     0.1620    -1.9770 ca         1 X44      -0.254500
     15 C15         -3.2470     0.7730    -2.0240 ca         1 X44       0.043000
     16 C16         -2.4100     0.7260    -0.9260 ca         1 X44      -0.142000
     17 C17          4.9070    -0.3630     3.3890 ca         1 X44      -0.082000
     18 C18          5.3180    -0.2010     4.6960 ca         1 X44       0.009500
     19 C19          4.5230     0.4900     5.5940 ca         1 X44      -0.217500
     20 C20          3.3130     1.0210     5.1870 ca         1 X44       0.009500
     21 C21          2.8930     0.8720     3.8810 ca         1 X44      -0.082000
     22 O22          4.0630    -0.1380     0.6820 o          1 X44      -0.536100
     23 O23         -6.4320    -0.8800    -3.2670 o          1 X44      -0.492800
     24 O24         -4.7190     0.4530    -4.5060 o          1 X44      -0.492800
     25 O25          5.9710    -0.3630     7.5200 o          1 X44      -0.491800
     26 O26          3.8820     0.9110     8.0330 o          1 X44      -0.491800
     27 S27          0.5440    -0.0000     2.4300 ss         1 X44      -0.267300
     28 S28         -5.5530     0.2300    -3.3780 sy         1 X44       0.940200
     29 S29          5.0550     0.6920     7.2620 sy         1 X44       0.939200
     30 HN02        -2.3490    -0.0280     2.2560 hn         1 X44       0.304800
     31 HN03         2.0330    -0.7820    -1.7830 hn         1 X44       0.293300
     32 HN0A         2.6470     0.7880    -1.3810 hn         1 X44       0.293300
     33 HN04        -7.1130     1.6570    -3.9950 hn         1 X44       0.313800
     34 HN0B        -7.0210     1.5250    -2.3680 hn         1 X44       0.313800
     35 HN05         6.7190     2.0290     6.7190 hn         1 X44       0.314467
     36 HN0C         5.3520     2.8640     7.0430 hn         1 X44       0.314467
     37 H12         -4.3730    -1.0830     1.1600 ha         1 X44       0.148000
     38 H13         -5.8610    -0.9820    -0.8010 ha         1 X44       0.127500
     39 H15         -2.9350     1.2960    -2.9190 ha         1 X44       0.127500
     40 H16         -1.4390     1.2050    -0.9630 ha         1 X44       0.148000
     41 H17          5.5300    -0.9040     2.6870 ha         1 X44       0.150000
     42 H18          6.2650    -0.6150     5.0200 ha         1 X44       0.129000
     43 H20          2.6960     1.5630     5.8940 ha         1 X44       0.129000
     44 H21          1.9450     1.2890     3.5650 ha         1 X44       0.150000
     45 H043        -5.9020     2.3960    -3.1800 hn         1 X44       0.313800
     46 H053         6.2430     2.2500     8.2670 hn         1 X44       0.314467
@<TRIPOS>BOND
     1     1     7 1   
     2     1     8 2   
     3     2     8 1   
     4     2     9 1   
     5     2    30 1   
     6     3     7 1   
     7     3    31 1   
     8     3    32 1   
     9     4    28 1   
    10     4    33 1   
    11     4    34 1   
    12     4    45 1   
    13     5    29 1   
    14     5    35 1   
    15     5    36 1   
    16     5    46 1   
    17     6     7 2   
    18     6    10 1   
    19     6    27 1   
    20     8    27 1   
    21     9    12 ar  
    22     9    16 ar  
    23    10    11 1   
    24    10    22 2   
    25    11    17 ar  
    26    11    21 ar  
    27    12    13 ar  
    28    12    37 1   
    29    13    14 ar  
    30    13    38 1   
    31    14    15 ar  
    32    14    28 1   
    33    15    16 ar  
    34    15    39 1   
    35    16    40 1   
    36    17    18 ar  
    37    17    41 1   
    38    18    19 ar  
    39    18    42 1   
    40    19    20 ar  
    41    19    29 1   
    42    20    21 ar  
    43    20    43 1   
    44    21    44 1   
    45    23    28 2   
    46    24    28 2   
    47    25    29 2   
    48    26    29 2   
@<TRIPOS>SUBSTRUCTURE
     1 X44         1 TEMP              0 ****  ****    0 ROOT
