@<TRIPOS>MOLECULE
molecule
   52    55     1     0     0
SMALL
bcc


@<TRIPOS>ATOM
      1 C1           0.0000     0.0000     0.0000 c3         1 X45      -0.040800
      2 N1           4.7370    -1.8870     3.7070 n          1 X45      -0.429300
      3 O1           1.5220    -0.0070    -2.3790 os         1 X45      -0.312900
      4 C2           1.5060     0.0000     0.0000 ca         1 X45      -0.096300
      5 N2           5.7130    -0.4650     2.3030 n2         1 X45      -0.523900
      6 O2           2.6200    -1.0220     3.9240 o          1 X45      -0.513500
      7 C3           2.1990     0.0000     1.1960 ca         1 X45      -0.076000
      8 N3           7.0440    -2.2510     3.0690 nz         1 X45      -0.722600
      9 C4           3.5810     0.0010     1.1960 ca         1 X45      -0.146300
     10 N4          -0.4180     3.5010     5.1760 nb         1 X45      -0.682000
     11 C5           4.2750     0.0010    -0.0000 ca         1 X45      -0.074000
     12 C6           3.5880     0.0010    -1.1980 ca         1 X45      -0.217000
     13 C7           2.2000    -0.0060    -1.2010 ca         1 X45       0.169100
     14 C8           2.3030    -0.0010    -3.5770 c3         1 X45       0.124700
     15 C9           4.3320     0.0020     2.5020 c3         1 X45       0.164800
     16 C10          3.7420    -1.0080     3.4670 c          1 X45       0.708500
     17 C11          5.8700    -1.5400     3.0130 c2         1 X45       0.449800
     18 C13          4.3230     1.3790     3.1150 ca         1 X45      -0.095300
     19 C14          5.4900     2.1190     3.1680 ca         1 X45      -0.118000
     20 C15          5.4880     3.3830     3.7300 ca         1 X45      -0.117000
     21 C16          4.3200     3.9130     4.2400 ca         1 X45      -0.099000
     22 C17          3.1420     3.1710     4.1900 cp         1 X45      -0.008000
     23 C18          3.1480     1.9010     3.6180 ca         1 X45      -0.100000
     24 C19          1.8830     3.7350     4.7370 cp         1 X45      -0.181300
     25 C20          1.8660     5.0100     5.3080 ca         1 X45      -0.078000
     26 C21          0.6660     5.4910     5.8040 ca         1 X45      -0.247300
     27 C22         -0.4650     4.7020     5.7200 ca         1 X45       0.435200
     28 C23          0.7000     3.0010     4.6900 ca         1 X45       0.434200
     29 H1          -0.3610     0.9600    -0.3490 hc         1 X45       0.055367
     30 H1A         -0.3610    -0.7820    -0.6570 hc         1 X45       0.055367
     31 H1B         -0.3610    -0.1780     1.0060 hc         1 X45       0.055367
     32 H3           1.6570     0.0000     2.1340 ha         1 X45       0.156000
     33 HN3          6.9080    -3.1520     2.6560 hn         1 X45       0.479467
     34 HN3A         7.7560    -1.7580     2.5680 hn         1 X45       0.479467
     35 H5           5.3580     0.0030     0.0020 ha         1 X45       0.133000
     36 H6           4.1330     0.0010    -2.1350 ha         1 X45       0.148000
     37 H8           2.9240    -0.8880    -3.6070 h1         1 X45       0.049033
     38 H8A          1.6440     0.0070    -4.4370 h1         1 X45       0.049033
     39 H8B          2.9310     0.8810    -3.5950 h1         1 X45       0.049033
     40 H12          4.9340    -3.9400     4.0580 h1         1 X45       0.069700
     41 H12A         3.5990    -3.1600     4.9160 h1         1 X45       0.069700
     42 H12B         5.2640    -2.9080     5.4560 h1         1 X45       0.069700
     43 H14          6.4080     1.7110     2.7620 ha         1 X45       0.131000
     44 H15          6.4050     3.9590     3.7680 ha         1 X45       0.144000
     45 H16          4.3330     4.8750     4.7380 ha         1 X45       0.148000
     46 H18          2.2490     1.2970     3.6290 ha         1 X45       0.154000
     47 H20          2.7680     5.6070     5.3610 ha         1 X45       0.141000
     48 H21          0.6150     6.4760     6.2540 ha         1 X45       0.149000
     49 H22         -1.4050     5.0750     6.1080 h4         1 X45       0.033100
     50 H23          0.6990     2.0110     4.2500 h4         1 X45       0.023100
     51 H33          7.2930    -2.4090     4.0260 hn         1 X45       0.479467
     52 C12          4.6260    -3.0500     4.5920 c3         1 X45       0.072300
@<TRIPOS>BOND
     1     4     1 1
     2     1    29 1
     3     1    30 1
     4     1    31 1
     5    17     2 1
     6     2    16 1
     7     2    52 1
     8    14     3 1
     9    13     3 1
    10    13     4 ar
    11     7     4 ar
    12     5    17 2
    13     5    15 1
    14    16     6 2
    15     9     7 ar
    16     7    32 1
    17     8    17 1
    18     8    33 1
    19     8    34 1
    20    11     9 ar
    21    15     9 1
    22    10    28 ar
    23    10    27 ar
    24    11    12 ar
    25    11    35 1
    26    12    13 ar
    27    12    36 1
    28    14    37 1
    29    14    38 1
    30    14    39 1
    31    18    15 1
    32    15    16 1
    33    52    40 1
    34    52    41 1
    35    52    42 1
    36    23    18 ar
    37    18    19 ar
    38    20    19 ar
    39    19    43 1
    40    21    20 ar
    41    20    44 1
    42    22    21 ar
    43    21    45 1
    44    24    22 1
    45    22    23 ar
    46    23    46 1
    47    28    24 ar
    48    24    25 ar
    49    26    25 ar
    50    25    47 1
    51    27    26 ar
    52    26    48 1
    53    27    49 1
    54    28    50 1
    55    51     8 1
@<TRIPOS>SUBSTRUCTURE
     1 X45         1 TEMP              0 ****  ****    0 ROOT
