@<TRIPOS>MOLECULE
molecule
   38    40     1     0     0
SMALL
bcc


@<TRIPOS>ATOM
      1 C1           0.0000     0.0000     0.0000 ca         1 X46      -0.205000
      2 N1           1.2520    -1.0590     7.0230 nc         1 X46      -0.826000
      3 S1          -0.0260    -1.3910     4.9120 ss         1 X46      -0.201300
      4 C2           1.3880     0.0000     0.0000 ca         1 X46       0.131100
      5 N2           3.2240     0.1270     6.4440 nv         1 X46      -0.974500
      6 C3           2.0820     0.0000     1.1990 ca         1 X46      -0.105000
      7 N3          -0.7700    -2.2390     7.4050 nu         1 X46      -0.738300
      8 O3           3.2410     0.4630     3.7500 o          1 X46      -0.583100
      9 C4          -0.0160     0.0010     2.3950 ca         1 X46      -0.146000
     10 C5          -0.6970     0.0000     1.1950 ca         1 X46      -0.098000
     11 O6           2.0670    -0.0010    -1.1770 os         1 X46      -0.326900
     12 C7           1.2880    -0.0010    -2.3750 c3         1 X46       0.128700
     13 C10          1.3800     0.0010     2.4050 ca         1 X46      -0.121600
     14 C11          2.1140     0.0000     3.6900 c          1 X46       0.650300
     15 C12          1.5110    -0.5340     4.8450 cd         1 X46      -0.381000
     16 C13          2.0190    -0.4800     6.1300 cc         1 X46       0.779200
     17 C14          0.1430    -1.5950     6.6010 cd         1 X46       0.756300
     18 C15         -0.5000    -2.4200     8.7640 ca         1 X46       0.144600
     19 C16         -1.5390    -2.4280     9.6860 ca         1 X46      -0.143000
     20 C17         -1.2670    -2.6060    11.0280 ca         1 X46      -0.110500
     21 C18          0.0370    -2.7760    11.4550 ca         1 X46      -0.144000
     22 C19          1.0740    -2.7670    10.5400 ca         1 X46      -0.110500
     23 C20          0.8080    -2.5960     9.1960 ca         1 X46      -0.143000
     24 H1          -0.5400    -0.0000    -0.9390 ha         1 X46       0.135000
     25 HN2          3.8870     0.3280     5.7220 hn         1 X46       0.458300
     26 HN2A         3.4460     0.3350     7.3980 hn         1 X46       0.458300
     27 H3           3.1650    -0.0000     1.2010 ha         1 X46       0.163000
     28 HN3         -1.6180    -2.5980     7.0120 hn         1 X46       0.464800
     29 H4          -0.5640     0.0020     3.3290 ha         1 X46       0.144000
     30 H5          -1.7800     0.0010     1.1890 ha         1 X46       0.131000
     31 H7           0.6630    -0.8860    -2.3990 h1         1 X46       0.041367
     32 H7A          1.9480    -0.0020    -3.2340 h1         1 X46       0.041367
     33 H7B          0.6630     0.8830    -2.4000 h1         1 X46       0.041367
     34 H16         -2.5610    -2.2950     9.3530 ha         1 X46       0.146500
     35 H17         -2.0770    -2.6130    11.7470 ha         1 X46       0.133000
     36 H18          0.2470    -2.9130    12.5090 ha         1 X46       0.130000
     37 H19          2.0940    -2.9030    10.8770 ha         1 X46       0.133000
     38 H20          1.6210    -2.5900     8.4800 ha         1 X46       0.146500
@<TRIPOS>BOND
     1     1     4 ar
     2     1    10 ar
     3     2    16 1
     4     2    17 2
     5     3    15 1
     6     3    17 1
     7     4     6 ar
     8     4    11 1
     9     5    16 1
    10     6    13 ar
    11     7    17 1
    12     7    18 1
    13     8    14 2
    14     9    10 ar
    15     9    13 ar
    16    11    12 1
    17    13    14 1
    18    14    15 1
    19    15    16 2
    20    18    19 ar
    21    18    23 ar
    22    19    20 ar
    23    20    21 ar
    24    21    22 ar
    25    22    23 ar
    26     1    24 1
    27     5    25 1
    28     5    26 1
    29     6    27 1
    30     7    28 1
    31     9    29 1
    32    10    30 1
    33    12    31 1
    34    12    32 1
    35    12    33 1
    36    19    34 1
    37    20    35 1
    38    21    36 1
    39    22    37 1
    40    23    38 1
@<TRIPOS>SUBSTRUCTURE
     1 X46         1 TEMP              0 ****  ****    0 ROOT
