@<TRIPOS>MOLECULE
molecule
   23    24     1     0     0
SMALL
bcc


@<TRIPOS>ATOM
      1 O            0.0000     0.0000     0.0000 o          1 X48      -0.489100
      2 C            1.2170     0.0000     0.0000 c          1 X48       0.686700
      3 N            1.8620     0.0000     1.1770 ne         1 X48      -0.677100
      4 C4           3.1660    -0.0000     1.2660 cf         1 X48       0.578900
      5 C3           3.9960     0.0010     0.0020 c3         1 X48      -0.162500
      6 C2           3.2630     0.0020    -1.3230 c2         1 X48      -0.173200
      7 C1           1.9240    -0.0040    -1.2910 ce         1 X48      -0.013100
      8 O1           1.2170    -0.0040    -2.4520 oh         1 X48      -0.500100
      9 C5           3.8190     0.0000     2.5810 ca         1 X48      -0.168900
     10 C10          3.0480    -0.0010     3.7500 ca         1 X48      -0.079000
     11 C9           3.6690    -0.0020     4.9800 ca         1 X48      -0.141000
     12 C8           5.0510    -0.0010     5.0630 ca         1 X48      -0.097000
     13 C7           5.8200     0.0000     3.9120 ca         1 X48      -0.141000
     14 C6           5.2160    -0.0050     2.6730 ca         1 X48      -0.079000
     15 H1           4.6310     0.8790     0.0260 hc         1 X48       0.081700
     16 H2           4.6310    -0.8770     0.0250 hc         1 X48       0.081700
     17 H3           3.7820     0.2900    -2.2290 ha         1 X48       0.158000
     18 H4           1.1200    -0.8900    -2.7610 ho         1 X48       0.426000
     19 H5           1.9660    -0.0020     3.6870 ha         1 X48       0.148500
     20 H6           3.0740    -0.0030     5.8850 ha         1 X48       0.138000
     21 H7           5.5320     0.0010     6.0330 ha         1 X48       0.135000
     22 H8           6.9010    -0.0020     3.9860 ha         1 X48       0.138000
     23 H9           5.8200    -0.0040     1.7740 ha         1 X48       0.148500
@<TRIPOS>BOND
     1    13    12 ar
     2    13    14 ar
     3    12    11 ar
     4    14     9 ar
     5    11    10 ar
     6     9    10 ar
     7     9     4 1
     8     5     4 1
     9     5     6 1
    10     4     3 2
    11     6     7 2
    12     3     2 1
    13     7     2 1
    14     7     8 1
    15     2     1 2
    16     5    15 1
    17     5    16 1
    18     6    17 1
    19     8    18 1
    20    10    19 1
    21    11    20 1
    22    12    21 1
    23    13    22 1
    24    14    23 1
@<TRIPOS>SUBSTRUCTURE
     1 X48         1 TEMP              0 ****  ****    0 ROOT
