@<TRIPOS>MOLECULE
X48
   23    24     1     0     0
SMALL
bcc


@<TRIPOS>ATOM
      1 O            0.0000     0.0000     0.0000 o          1 X48      -0.523100
      2 C            1.2170     0.0000     0.0000 c          1 X48       0.683700
      3 N            1.8620     0.0000     1.1770 ne         1 X48      -0.572100
      4 C4           3.1660    -0.0000     1.2660 cf         1 X48       0.523900
      5 C3           3.9960     0.0010     0.0020 c3         1 X48      -0.074500
      6 C2           3.2630     0.0020    -1.3230 c2         1 X48      -0.169200
      7 C1           1.9240    -0.0040    -1.2910 ce         1 X48       0.006900
      8 O1           1.2170    -0.0040    -2.4520 oh         1 X48      -0.477100
      9 C5           3.8190     0.0000     2.5810 ca         1 X48      -0.175900
     10 C10          3.0480    -0.0010     3.7500 ca         1 X48      -0.057500
     11 C9           3.6690    -0.0020     4.9800 ca         1 X48      -0.112500
     12 C8           5.0510    -0.0010     5.0630 ca         1 X48      -0.071000
     13 C7           5.8200     0.0000     3.9120 ca         1 X48      -0.112500
     14 C6           5.2160    -0.0050     2.6730 ca         1 X48      -0.057500
     15 H1           4.6310     0.8790     0.0260 hc         1 X48       0.046200
     16 H2           4.6310    -0.8770     0.0250 hc         1 X48       0.046200
     17 H3           3.7820     0.2900    -2.2290 ha         1 X48       0.131000
     18 H4           1.1200    -0.8900    -2.7610 ho         1 X48       0.408000
     19 H5           1.9660    -0.0020     3.6870 ha         1 X48       0.118500
     20 H6           3.0740    -0.0030     5.8850 ha         1 X48       0.107500
     21 H7           5.5320     0.0010     6.0330 ha         1 X48       0.103000
     22 H8           6.9010    -0.0020     3.9860 ha         1 X48       0.107500
     23 H9           5.8200    -0.0040     1.7740 ha         1 X48       0.118500
@<TRIPOS>BOND
     1     1     2 2   
     2     2     3 1   
     3     2     7 1   
     4     3     4 2   
     5     4     5 1   
     6     4     9 1   
     7     5     6 1   
     8     5    15 1   
     9     5    16 1   
    10     6     7 2   
    11     6    17 1   
    12     7     8 1   
    13     8    18 1   
    14     9    10 ar  
    15     9    14 ar  
    16    10    11 ar  
    17    10    19 1   
    18    11    12 ar  
    19    11    20 1   
    20    12    13 ar  
    21    12    21 1   
    22    13    14 ar  
    23    13    22 1   
    24    14    23 1   
@<TRIPOS>SUBSTRUCTURE
     1 X48         1 TEMP              0 ****  ****    0 ROOT
