@<TRIPOS>MOLECULE
X4B
   33    34     1     0     0
SMALL
bcc


@<TRIPOS>ATOM
      1 N01          0.0000     0.0000     0.0000 nz         1 X4B       0.206600
      2 N02          4.1800    -0.2470    -0.0910 nu         1 X4B      -0.330600
      3 N03          6.6120    -1.8950     3.1990 nb         1 X4B      -0.567000
      4 N04          1.3540     0.2530    -4.9550 no         1 X4B       1.049200
      5 C05          1.3950     0.1260    -2.4860 ca         1 X4B       0.073000
      6 C06          2.0840     0.0020    -1.2770 ca         1 X4B      -0.353600
      7 C07          3.4830    -0.1220    -1.2860 ca         1 X4B       0.181600
      8 C08          4.1650    -0.1190    -2.4950 ca         1 X4B      -0.210000
      9 C09          3.4700     0.0060    -3.6820 ca         1 X4B       0.084400
     10 C10          2.0880     0.1270    -3.6770 ca         1 X4B      -0.484200
     11 C11          1.3480     0.0000     0.0000 c          1 X4B       0.373700
     12 C12          5.6230    -0.4970    -0.1080 c3         1 X4B       0.214100
     13 C13          6.1330    -0.5890     1.3070 ca         1 X4B      -0.282600
     14 C14          6.1660    -1.8070     1.9610 ca         1 X4B       0.432200
     15 C15          7.0410    -0.8370     3.8600 ca         1 X4B       0.438200
     16 C16          7.0380     0.4130     3.2700 ca         1 X4B      -0.212300
     17 C17          6.5770     0.5460     1.9690 ca         1 X4B      -0.044000
     18 O18          1.9570     0.0000     1.0530 o          1 X4B      -0.501100
     19 O19          1.9640     0.2540    -6.0090 o          1 X4B      -0.431000
     20 O20          0.1410     0.3560    -4.9540 o          1 X4B      -0.431000
     21 Cl21         4.3290     0.0090    -5.1900 cl         1 X4B       0.151600
     22 H101        -0.3340    -0.0510     0.9420 hn         1 X4B       0.247467
     23 H201        -0.3340     0.8420    -0.4270 hn         1 X4B       0.247467
     24 HN02         3.7040    -0.1230     0.7810 hn         1 X4B       0.347800
     25 H05          0.3200     0.2630    -2.4840 ha         1 X4B       0.106000
     26 H08          5.2450    -0.2100    -2.5070 ha         1 X4B       0.156000
     27 H112         5.8220    -1.4280    -0.6250 h1         1 X4B       0.038200
     28 H212         6.1240     0.3150    -0.6210 h1         1 X4B       0.038200
     29 H14          5.8220    -2.6980     1.4510 h4         1 X4B      -0.017900
     30 H15          7.4000    -0.9490     4.8760 h4         1 X4B      -0.006900
     31 H16          7.3910     1.2790     3.8170 ha         1 X4B       0.126000
     32 H17          6.5620     1.5130     1.4820 ha         1 X4B       0.112000
     33 H013        -0.3340    -0.8230    -0.4610 hn         1 X4B       0.247467
@<TRIPOS>BOND
     1     1    11 1   
     2     1    22 1   
     3     1    23 1   
     4     1    33 1   
     5     2     7 1   
     6     2    12 1   
     7     2    24 1   
     8     3    14 ar  
     9     3    15 ar  
    10     4    10 1   
    11     4    19 1   
    12     4    20 1   
    13     5     6 ar  
    14     5    10 ar  
    15     5    25 1   
    16     6     7 ar  
    17     6    11 1   
    18     7     8 ar  
    19     8     9 ar  
    20     8    26 1   
    21     9    10 ar  
    22     9    21 1   
    23    11    18 2   
    24    12    13 1   
    25    12    27 1   
    26    12    28 1   
    27    13    14 ar  
    28    13    17 ar  
    29    14    29 1   
    30    15    16 ar  
    31    15    30 1   
    32    16    17 ar  
    33    16    31 1   
    34    17    32 1   
@<TRIPOS>SUBSTRUCTURE
     1 X4B         1 TEMP              0 ****  ****    0 ROOT
