@<TRIPOS>MOLECULE
X4C
   49    49     1     0     0
SMALL
bcc


@<TRIPOS>ATOM
      1 C25        -0.9030   -2.1650    0.9240 c2        1 X4C     -0.182000
      2 C24         3.6650   -0.6600   -1.4850 c1        1 X4C     -0.223500
      3 C26        -0.1540   -1.3310    1.5900 c1        1 X4C     -0.051000
      4 C17         1.4160   -2.9320    5.9840 c2        1 X4C      0.011000
      5 C15         1.1000   -2.0140    4.9390 c2        1 X4C     -0.236000
      6 C23         2.8620   -0.6580   -0.5990 c1        1 X4C     -0.223500
      7 C27         0.5680   -0.5160    2.2250 c1        1 X4C     -0.237000
      8 C12         2.6560   -1.2640    7.3050 c1        1 X4C     -0.025000
      9 C16         2.2160   -2.5920    7.0540 c2        1 X4C     -0.228000
     10 C8          2.0840   -0.2320    6.4250 c3        1 X4C     -0.098000
     11 C10         1.5310   -0.7260    5.0770 c2        1 X4C      0.021000
     12 C18         1.3140    0.3830    2.8400 c2        1 X4C      0.063000
     13 C9          5.3620    5.0320    1.1570 c2        1 X4C     -0.203000
     14 C7          4.1310    4.7430    0.4980 c2        1 X4C      0.125000
     15 C1          2.5340    1.3090    4.8460 c2        1 X4C      0.052000
     16 C2          4.4600    3.3450    2.2900 c2        1 X4C      0.027000
     17 C21         4.5690    6.6740   -2.4780 c2        1 X4C     -0.221000
     18 C14         2.3650    3.0310    1.0300 c1        1 X4C     -0.082000
     19 C22         4.1030    6.0120   -1.4560 c1        1 X4C      0.093000
     20 C20         2.6660   -3.6310    8.0140 c3        1 X4C     -0.151000
     21 C11         3.0000    2.5440    4.1360 c3        1 X4C     -0.108000
     22 C13         4.1790    2.2220    3.2340 c3        1 X4C     -0.093000
     23 N4          2.7890    1.0150    6.1070 n2        1 X4C     -0.114000
     24 N3          5.5160    4.1400    2.2640 n2        1 X4C     -0.095000
     25 N19         3.4910    5.3990   -0.5470 n2        1 X4C     -0.131000
     26 N5          1.7400    0.3060    4.1570 n3        1 X4C     -0.187000
     27 N6          3.5120    3.6460    1.2080 na        1 X4C     -0.117000
     28 H1          4.3780   -0.6680   -2.2700 ha        1 X4C      0.222500
     29 H2         -1.2970   -3.0850    1.3800 ha        1 X4C      0.137500
     30 H3         -1.1790   -1.9920   -0.1250 ha        1 X4C      0.137500
     31 H4          0.6070   -2.3770    4.0260 ha        1 X4C      0.156000
     32 H5          1.0490   -3.9670    5.8650 ha        1 X4C      0.133000
     33 H6          2.1470   -0.6600    0.1900 ha        1 X4C      0.222500
     34 H7          1.6610    1.2950    2.2880 h4        1 X4C      0.211000
     35 H8          1.1850    0.0630    7.0840 h1        1 X4C      0.195000
     36 H9          1.7350    3.3570    0.1780 ha        1 X4C      0.091000
     37 H10         4.6860    6.2130   -3.4680 ha        1 X4C      0.174500
     38 H11         4.8660    7.7290   -2.3800 ha        1 X4C      0.174500
     39 H12         3.7370   -3.4610    8.2870 hc        1 X4C      0.079667
     40 H13         2.0580   -3.5730    8.9520 hc        1 X4C      0.079667
     41 H14         2.5610   -4.6580    7.5870 hc        1 X4C      0.079667
     42 H15         7.1490    6.2370    1.2520 ha        1 X4C      0.078000
     43 H16         7.6770    4.8580   -0.6620 ha        1 X4C      0.007500
     44 H17         7.3420    5.2560   -1.1010 ha        1 X4C      0.007500
     45 H18         5.0930    2.0260    3.8590 hc        1 X4C      0.129500
     46 H19         2.1460    2.9700    3.5400 hc        1 X4C      0.126500
     47 H20         3.3030    3.3160    4.8950 hc        1 X4C      0.126500
     48 H21         3.9690    1.2960    2.6300 hc        1 X4C      0.129500
     49 C28         6.1940    6.0790    0.7340 c1        1 X4C     -0.086000
@<TRIPOS>BOND
     1    1    3 1   
     2    1   29 1   
     3    1   30 1   
     4    2    6 1   
     5    2   28 1   
     6    3    7 1   
     7    4    5 1   
     8    4    9 1   
     9    4   32 1   
    10    5   11 1   
    11    5   31 1   
    12    6   33 1   
    13    7   12 1   
    14    8    9 1   
    15    8   10 1   
    16    9   20 1   
    17   10   11 1   
    18   10   23 1   
    19   10   35 1   
    20   11   26 1   
    21   12   26 1   
    22   12   34 1   
    23   13   14 1   
    24   13   24 1   
    25   13   49 1   
    26   14   25 1   
    27   14   27 1   
    28   15   21 1   
    29   15   23 1   
    30   15   26 1   
    31   16   22 1   
    32   16   24 1   
    33   16   27 1   
    34   17   19 1   
    35   17   37 1   
    36   17   38 1   
    37   18   27 1   
    38   18   36 1   
    39   19   25 1   
    40   20   39 1   
    41   20   40 1   
    42   20   41 1   
    43   21   22 1   
    44   21   46 1   
    45   21   47 1   
    46   22   45 1   
    47   22   48 1   
    48   42   49 1   
    49   43   44 1   
@<TRIPOS>SUBSTRUCTURE
     1 X4C         1 TEMP              0 ****  ****    0 ROOT
