@<TRIPOS>MOLECULE
molecule
   49    53     1     0     0
SMALL
bcc


@<TRIPOS>ATOM
      1 C25          0.0000     0.0000     0.0000 ca         1 X4C      -0.123000
      2 C24          1.3830     0.0000     0.0000 ca         1 X4C      -0.123000
      3 C26         -0.6950     0.0060     1.1970 ca         1 X4C      -0.123000
      4 C17          1.6530    -3.0090     5.7870 ca         1 X4C      -0.113000
      5 C15          1.4580    -2.2150     4.6770 ca         1 X4C      -0.123000
      6 C23          2.0750     0.0000     1.1960 ca         1 X4C      -0.128500
      7 C27         -0.0080     0.0110     2.3950 ca         1 X4C      -0.128500
      8 C12          3.2070    -1.4320     6.6940 ca         1 X4C      -0.072000
      9 C16          2.5270    -2.6120     6.7900 ca         1 X4C      -0.099300
     10 C8           3.0250    -0.6110     5.5780 ca         1 X4C       0.097400
     11 C10          2.1410    -1.0120     4.5630 ca         1 X4C      -0.093200
     12 C18          1.3800     0.0000     2.3990 ca         1 X4C       0.009800
     13 C9           5.5250     5.3000     1.3670 cc         1 X4C       0.064400
     14 C7           4.6600     5.0160     0.3310 cd         1 X4C       0.298500
     15 C1           3.0450     0.9390     4.0530 cc         1 X4C       0.429800
     16 C2           4.7570     3.3070     1.7140 cd         1 X4C       0.314800
     17 C21          2.8990     3.8890    -1.3930 cc         1 X4C      -0.278300
     18 C14          3.2920     3.1790    -0.3100 cd         1 X4C      -0.055300
     19 C22          3.4040     5.1850    -1.5960 cc         1 X4C       0.412200
     20 C20          2.7270    -3.4930     7.9970 c3         1 X4C      -0.043800
     21 C11          3.3820     2.2110     3.3190 c3         1 X4C      -0.081700
     22 C13          4.5780     1.9650     2.3960 c3         1 X4C      -0.059700
     23 N4           3.5410     0.5870     5.2030 nd         1 X4C      -0.591100
     24 N3           5.5480     4.2410     2.1770 nc         1 X4C      -0.548300
     25 N19          4.2570     5.7050    -0.7470 nd         1 X4C      -0.624000
     26 N5           2.1730    -0.0110     3.6100 na         1 X4C      -0.095400
     27 N6           4.1820     3.7420     0.5660 na         1 X4C      -0.175000
     28 H1          -0.5400    -0.0020    -0.9390 ha         1 X4C       0.137000
     29 H2           1.9240    -0.0030    -0.9380 ha         1 X4C       0.138500
     30 H3          -1.7780     0.0110     1.1930 ha         1 X4C       0.138500
     31 H4           1.1210    -3.9480     5.8770 ha         1 X4C       0.133000
     32 H5           0.7750    -2.5290     3.8970 ha         1 X4C       0.130000
     33 H6           3.1580    -0.0040     1.1960 ha         1 X4C       0.147500
     34 H7          -0.5530     0.0140     3.3310 ha         1 X4C       0.147500
     35 H8           3.8870    -1.1320     7.4830 ha         1 X4C       0.144000
     36 H9           2.1940     3.4630    -2.0970 ha         1 X4C       0.152000
     37 H10          2.9120     2.1790    -0.1400 h4         1 X4C       0.167000
     38 H11          3.0910     5.7550    -2.4620 h4         1 X4C       0.034100
     39 H12          3.6950    -3.9750     7.9360 hc         1 X4C       0.043033
     40 H13          2.6790    -2.8900     8.8960 hc         1 X4C       0.043033
     41 H14          1.9500    -4.2470     8.0260 hc         1 X4C       0.043033
     42 H15          5.6090     7.4100     1.6410 hc         1 X4C       0.051033
     43 H16          6.9470     6.7380     0.7000 hc         1 X4C       0.051033
     44 H17          6.8980     6.5120     2.4530 hc         1 X4C       0.051033
     45 H18          3.6320     2.9850     4.0350 hc         1 X4C       0.077700
     46 H19          2.5300     2.5250     2.7300 hc         1 X4C       0.077700
     47 H20          4.3530     1.2090     1.6530 hc         1 X4C       0.072200
     48 H21          5.4910     1.7000     2.9160 hc         1 X4C       0.072200
     49 C28          6.2990     6.5800     1.5530 c3         1 X4C      -0.000900
@<TRIPOS>BOND
     1     4     5 ar
     2     4     9 ar
     3     5    11 ar
     4    20     9 1
     5     3     1 ar
     6     3     7 ar
     7     1     2 ar
     8     9     8 ar
     9     7    12 ar
    10     2     6 ar
    11    11    26 1
    12    11    10 ar
    13    12     6 ar
    14    12    26 1
    15     8    10 ar
    16    26    15 1
    17    10    23 1
    18    15    23 2
    19    15    21 1
    20    21    22 1
    21    17    18 2
    22    17    19 1
    23    18    27 1
    24    22    16 1
    25    27    16 1
    26    27    14 1
    27    19    25 2
    28    16    24 2
    29    14    25 1
    30    14    13 2
    31    24    13 1
    32    13    49 1
    33     1    28 1
    34     2    29 1
    35     3    30 1
    36     4    31 1
    37     5    32 1
    38     6    33 1
    39     7    34 1
    40     8    35 1
    41    17    36 1
    42    18    37 1
    43    19    38 1
    44    20    39 1
    45    20    40 1
    46    20    41 1
    47    49    42 1
    48    49    43 1
    49    49    44 1
    50    21    45 1
    51    21    46 1
    52    22    47 1
    53    22    48 1
@<TRIPOS>SUBSTRUCTURE
     1 X4C         1 TEMP              0 ****  ****    0 ROOT
