@<TRIPOS>MOLECULE
X4D
   46    50     1     0     0
SMALL
bcc


@<TRIPOS>ATOM
      1 C25        -0.3280    0.3120    0.2130 ca        1 X4D     -0.133000
      2 C24         1.0490    0.4800    0.0760 ca        1 X4D     -0.116500
      3 C26        -0.8660    0.0170    1.4640 ca        1 X4D     -0.116500
      4 C17         1.5280   -3.0460    5.7620 ca        1 X4D     -0.116000
      5 C15         1.3210   -2.2340    4.6580 ca        1 X4D     -0.126000
      6 C23         1.8920    0.3540    1.1770 ca        1 X4D     -0.137500
      7 C27        -0.0430   -0.1040    2.5790 ca        1 X4D     -0.137500
      8 C12         3.2950   -1.6120    6.6400 ca        1 X4D     -0.072000
      9 C9          5.5070    4.3560   -0.0290 cc        1 X4D      0.001600
     10 C16         2.4970   -2.7470    6.7440 ca        1 X4D     -0.099300
     11 C8          3.1150   -0.7650    5.5380 ca        1 X4D      0.071400
     12 C10         2.1120   -1.0850    4.5410 ca        1 X4D     -0.069200
     13 C18         1.3540    0.0650    2.4490 ca        1 X4D      0.009800
     14 C7          5.9030    5.1520    1.0660 cd        1 X4D     -0.152300
     15 C2          5.2560    3.0680    1.7570 cd        1 X4D      0.382800
     16 C1          3.2060    0.8280    4.0210 cc        1 X4D      0.430800
     17 C19         6.3900    6.4800    1.2590 cd        1 X4D     -0.035000
     18 C22         6.6730    6.8850    2.5320 cc        1 X4D     -0.257300
     19 C21         6.4650    5.9510    3.6160 cc        1 X4D      0.370200
     20 C20         2.6530   -3.6690    7.8940 c3        1 X4D     -0.049800
     21 C13         4.9550    1.9120    2.6470 c3        1 X4D     -0.077700
     22 C11         3.5820    2.0730    3.2820 c3        1 X4D     -0.097700
     23 N3          5.1190    3.1040    0.4030 nc        1 X4D     -0.555300
     24 N4          3.7700    0.4290    5.1780 nd        1 X4D     -0.566100
     25 N14         6.0140    4.7130    3.4690 nd        1 X4D     -0.459800
     26 N5          2.1920   -0.0700    3.5720 na        1 X4D     -0.101400
     27 N6          5.7370    4.3140    2.2290 na        1 X4D      0.088300
     28 H1         -0.9860    0.4100   -0.6620 ha        1 X4D      0.137000
     29 H2          1.4820    0.7110   -0.9100 ha        1 X4D      0.139500
     30 H3         -1.9530   -0.1170    1.5780 ha        1 X4D      0.139500
     31 H4          0.9200   -3.9560    5.8820 ha        1 X4D      0.132000
     32 H5          0.5670   -2.4820    3.8980 ha        1 X4D      0.140000
     33 H6          2.9790    0.4820    1.0450 ha        1 X4D      0.149500
     34 H7         -0.4830   -0.3350    3.5620 ha        1 X4D      0.149500
     35 H8          4.0540   -1.3770    7.4000 ha        1 X4D      0.148000
     36 H10         6.5190    7.1240    0.3780 ha        1 X4D      0.155000
     37 H11         7.0510    7.8880    2.7650 ha        1 X4D      0.154000
     38 H12         6.6860    6.2510    4.6560 h4        1 X4D      0.043100
     39 H13         1.6920   -3.7470    8.4620 hc        1 X4D      0.042700
     40 H14         2.9290   -4.6920    7.5350 hc        1 X4D      0.042700
     41 H15         3.4480   -3.3160    8.5950 hc        1 X4D      0.042700
     42 H16         5.7360    1.8290    3.4500 hc        1 X4D      0.083200
     43 H17         4.9900    0.9680    2.0380 hc        1 X4D      0.083200
     44 H18         2.8170    2.3100    2.4950 hc        1 X4D      0.079200
     45 H19         3.6000    2.9300    4.0090 hc        1 X4D      0.079200
     46 H9          5.4870    4.6290   -1.0840 h4        1 X4D      0.185000
@<TRIPOS>BOND
     1    1    2 ar  
     2    1    3 ar  
     3    1   28 1   
     4    2    6 ar  
     5    2   29 1   
     6    3    7 ar  
     7    3   30 1   
     8    4    5 ar  
     9    4   10 ar  
    10    4   31 1   
    11    5   12 ar  
    12    5   32 1   
    13    6   13 ar  
    14    6   33 1   
    15    7   13 ar  
    16    7   34 1   
    17    8   10 ar  
    18    8   11 ar  
    19    8   35 1   
    20    9   14 2   
    21    9   23 1   
    22    9   46 1   
    23   10   20 1   
    24   11   12 ar  
    25   11   24 1   
    26   12   26 1   
    27   13   26 1   
    28   14   17 1   
    29   14   27 1   
    30   15   21 1   
    31   15   23 2   
    32   15   27 1   
    33   16   22 1   
    34   16   24 2   
    35   16   26 1   
    36   17   18 2   
    37   17   36 1   
    38   18   19 1   
    39   18   37 1   
    40   19   25 2   
    41   19   38 1   
    42   20   39 1   
    43   20   40 1   
    44   20   41 1   
    45   21   22 1   
    46   21   42 1   
    47   21   43 1   
    48   22   44 1   
    49   22   45 1   
    50   25   27 1   
@<TRIPOS>SUBSTRUCTURE
     1 X4D         1 TEMP              0 ****  ****    0 ROOT
