@<TRIPOS>MOLECULE
molecule
   46    50     1     0     0
SMALL
bcc


@<TRIPOS>ATOM
      1 C25          0.0000     0.0000     0.0000 ca         1 X4D      -0.123000
      2 C24          1.3830     0.0000     0.0000 ca         1 X4D      -0.117500
      3 C26         -0.6940     0.0060     1.1960 ca         1 X4D      -0.117500
      4 C17          1.6540    -3.0070     5.7880 ca         1 X4D      -0.116000
      5 C15          1.4580    -2.2130     4.6780 ca         1 X4D      -0.120000
      6 C23          2.0750     0.0000     1.1960 ca         1 X4D      -0.121500
      7 C27         -0.0070     0.0120     2.3950 ca         1 X4D      -0.121500
      8 C12          3.2090    -1.4300     6.6940 ca         1 X4D      -0.074000
      9 C9           4.6870     4.9000     0.2830 cc         1 X4D       0.024600
     10 C16          2.5280    -2.6110     6.7890 ca         1 X4D      -0.100300
     11 C8           3.0270    -0.6100     5.5780 ca         1 X4D       0.095400
     12 C10          2.1420    -1.0110     4.5620 ca         1 X4D      -0.093200
     13 C18          1.3810     0.0020     2.3980 ca         1 X4D      -0.000200
     14 C7           5.5540     5.2840     1.2880 cd         1 X4D      -0.194300
     15 C2           4.7820     3.2750     1.7090 cd         1 X4D       0.384800
     16 C1           3.0470     0.9400     4.0520 cc         1 X4D       0.433800
     17 C19          6.3170     6.4390     1.5380 cd         1 X4D      -0.014000
     18 C22          7.0880     6.4890     2.6580 cc         1 X4D      -0.297300
     19 C21          7.1160     5.4030     3.5440 cc         1 X4D       0.415200
     20 C20          2.7290    -3.4920     7.9960 c3         1 X4D      -0.042800
     21 C13          4.5800     1.9650     2.3940 c3         1 X4D      -0.072700
     22 C11          3.3840     2.2110     3.3180 c3         1 X4D      -0.080700
     23 N3           4.2470     3.6790     0.5820 nc         1 X4D      -0.577300
     24 N4           3.5440     0.5880     5.2030 nd         1 X4D      -0.600100
     25 N14          6.4110     4.3280     3.3200 nd         1 X4D      -0.477800
     26 N5           2.1750    -0.0100     3.6100 na         1 X4D      -0.089400
     27 N6           5.6040     4.2300     2.1820 na         1 X4D       0.118300
     28 H1          -0.5410    -0.0020    -0.9390 ha         1 X4D       0.135000
     29 H2           1.9250    -0.0030    -0.9380 ha         1 X4D       0.139500
     30 H3          -1.7770     0.0100     1.1930 ha         1 X4D       0.139500
     31 H4           1.1220    -3.9460     5.8780 ha         1 X4D       0.132000
     32 H5           0.7750    -2.5270     3.8980 ha         1 X4D       0.131000
     33 H6           3.1580    -0.0040     1.1960 ha         1 X4D       0.145500
     34 H7          -0.5520     0.0150     3.3310 ha         1 X4D       0.145500
     35 H8           3.8890    -1.1310     7.4820 ha         1 X4D       0.142000
     36 H10          6.2910     7.2750     0.8490 ha         1 X4D       0.151000
     37 H11          7.6820     7.3710     2.8660 ha         1 X4D       0.147000
     38 H12          7.7350     5.4570     4.4320 h4         1 X4D       0.050100
     39 H13          3.7880    -3.5740     8.2110 hc         1 X4D       0.041367
     40 H14          2.3230    -4.4760     7.7960 hc         1 X4D       0.041367
     41 H15          2.2200    -3.0580     8.8490 hc         1 X4D       0.041367
     42 H16          5.4770     1.7010     2.9410 hc         1 X4D       0.078200
     43 H17          4.3680     1.2000     1.6570 hc         1 X4D       0.078200
     44 H18          3.6340     2.9860     4.0320 hc         1 X4D       0.077700
     45 H19          2.5310     2.5250     2.7280 hc         1 X4D       0.077700
     46 H9           4.4150     5.4850    -0.5870 h4         1 X4D       0.185000
@<TRIPOS>BOND
     1     4     5 ar
     2     4    10 ar
     3     5    12 ar
     4     3     1 ar
     5     3     7 ar
     6     1     2 ar
     7    20    10 1
     8     7    13 ar
     9    10     8 ar
    10     2     6 ar
    11    12    26 1
    12    12    11 ar
    13    13     6 ar
    14    13    26 1
    15    26    16 1
    16     8    11 ar
    17    11    24 1
    18    16    24 2
    19    16    22 1
    20    22    21 1
    21    21    15 1
    22    23    15 2
    23    23     9 1
    24    15    27 1
    25     9    14 2
    26    27    14 1
    27    27    25 1
    28    14    17 1
    29    25    19 2
    30    17    18 2
    31    19    18 1
    32     1    28 1
    33     2    29 1
    34     3    30 1
    35     4    31 1
    36     5    32 1
    37     6    33 1
    38     7    34 1
    39     8    35 1
    40     9    46 1
    41    17    36 1
    42    18    37 1
    43    19    38 1
    44    20    39 1
    45    20    40 1
    46    20    41 1
    47    21    42 1
    48    21    43 1
    49    22    44 1
    50    22    45 1
@<TRIPOS>SUBSTRUCTURE
     1 X4D         1 TEMP              0 ****  ****    0 ROOT
