@<TRIPOS>MOLECULE
molecule
   63    66     1     0     0
SMALL
bcc


@<TRIPOS>ATOM
      1 C4           0.0000     0.0000     0.0000 ca         1 X4G       0.581800
      2 C5           1.3960     0.0000     0.0000 ca         1 X4G      -0.187700
      3 C6           2.0550     0.0000     1.2170 ca         1 X4G       0.482200
      4 N1           1.3480     0.0010     2.3370 nb         1 X4G      -0.769000
      5 N3          -0.6450    -0.0000     1.1600 nb         1 X4G      -0.800000
      6 OAE         -5.5320    -4.5330    -5.4830 oh         1 X4G      -0.600800
      7 CBE         -4.2480    -3.9850    -5.1770 c3         1 X4G       0.133100
      8 CAQ         -4.3120    -2.4400    -5.0780 c3         1 X4G       0.137800
      9 CAN         -3.8060    -4.3730    -3.7420 c3         1 X4G      -0.116400
     10 CAO         -2.8480    -3.2290    -3.3510 c3         1 X4G       0.152800
     11 NBF         -3.1800    -2.0700    -4.2020 n3         1 X4G      -0.711600
     12 CBA         -2.2630    -0.3890    -2.7070 cc         1 X4G      -0.150300
     13 CAK         -1.8970    -0.6260    -1.4310 cd         1 X4G      -0.124300
     14 CAX         -1.2620     0.4120    -3.2920 cc         1 X4G      -0.121300
     15 CAC         -1.2430     0.9220    -4.7100 c3         1 X4G      -0.012800
     16 CAJ         -0.3240     0.6400    -2.3510 cd         1 X4G      -0.149300
     17 NBG         -0.7070     0.0050    -1.2030 na         1 X4G      -0.086900
     18 F5           2.0880    -0.0010    -1.1600 f          1 X4G      -0.124900
     19 C2           0.0240     0.0010     2.3040 ca         1 X4G       0.951900
     20 NAT         -0.6820     0.0010     3.4980 nu         1 X4G      -0.751300
     21 CAZ          0.0010     0.1190     4.7150 ca         1 X4G       0.153600
     22 CAI          1.0870     0.9780     4.8210 ca         1 X4G      -0.136000
     23 CAW          1.7570     1.0980     6.0230 ca         1 X4G      -0.077800
     24 CAB          2.9360     2.0300     6.1380 c3         1 X4G      -0.044800
     25 CAH         -0.4110    -0.6170     5.8170 ca         1 X4G      -0.136000
     26 CAV          0.2630    -0.5010     7.0160 ca         1 X4G      -0.077800
     27 CAA         -0.1830    -1.3010     8.2130 c3         1 X4G      -0.044800
     28 CBC          1.3450     0.3600     7.1230 ca         1 X4G       0.091100
     29 OAU          2.0050     0.4790     8.3060 os         1 X4G      -0.339900
     30 CAM          1.5390     1.4830     9.2110 c3         1 X4G       0.147400
     31 CAL          2.3980     1.4660    10.4770 c3         1 X4G       0.142400
     32 OAD          3.7360     1.8450    10.1500 oh         1 X4G      -0.600800
     33 H1           3.1380     0.0000     1.2530 h4         1 X4G       0.049100
     34 H3          -3.5050    -4.2920    -5.9030 h1         1 X4G       0.048700
     35 H4          -5.2500    -2.1310    -4.6320 h1         1 X4G       0.050700
     36 H5          -4.1900    -1.9960    -6.0590 h1         1 X4G       0.050700
     37 H6          -4.6590    -4.4010    -3.0750 hc         1 X4G       0.056200
     38 H7          -3.2840    -5.3220    -3.7470 hc         1 X4G       0.056200
     39 H8          -1.8230    -3.5320    -3.5270 h1         1 X4G       0.049200
     40 H9          -2.9890    -2.9710    -2.3080 h1         1 X4G       0.049200
     41 H13         -2.4570    -1.2070    -0.7070 h4         1 X4G       0.176000
     42 H14         -1.0160     0.1050    -5.3840 hc         1 X4G       0.041033
     43 H15         -0.4870     1.6910    -4.8070 hc         1 X4G       0.041033
     44 H16         -2.2130     1.3360    -4.9570 hc         1 X4G       0.041033
     45 H17          0.5790     1.2230    -2.4830 h4         1 X4G       0.179000
     46 H18         -1.6810    -0.0500     3.4880 hn         1 X4G       0.469800
     47 H19          1.3710     1.5970     3.9790 ha         1 X4G       0.142500
     48 H20          3.7090     1.5620     6.7350 hc         1 X4G       0.048200
     49 H21          3.3230     2.2460     5.1500 hc         1 X4G       0.048200
     50 H22          2.6220     2.9520     6.6130 hc         1 X4G       0.048200
     51 H23         -1.2620    -1.2830     5.7360 ha         1 X4G       0.142500
     52 H24         -0.7540    -2.1600     7.8800 hc         1 X4G       0.048200
     53 H25          0.6850    -1.6380     8.7660 hc         1 X4G       0.048200
     54 H26         -0.8010    -0.6820     8.8510 hc         1 X4G       0.048200
     55 H27          1.6090     2.4550     8.7390 h1         1 X4G       0.037200
     56 H28          0.5070     1.2820     9.4720 h1         1 X4G       0.037200
     57 H29          1.9920     2.1630    11.1990 h1         1 X4G       0.030200
     58 H30          2.3990     0.4680    10.9000 h1         1 X4G       0.030200
     59 H31          4.2440     1.9200    10.9410 ho         1 X4G       0.401000
     60 CAP         -3.5100    -0.8950    -3.3850 c3         1 X4G       0.238100
     61 H2          -5.4790    -5.0290    -6.2830 ho         1 X4G       0.403000
     62 H11         -4.2430    -1.1700    -2.6360 h1         1 X4G       0.040200
     63 H12         -3.9170    -0.1170    -4.0200 h1         1 X4G       0.040200
@<TRIPOS>BOND
     1    10    11 1
     2    10     9 1
     3    60    11 1
     4    60    12 1
     5    15    14 1
     6    11     8 1
     7    12    14 1
     8    12    13 2
     9     9     7 1
    10    14    16 2
    11    31    30 1
    12    31    32 1
    13    13    17 1
    14    30    29 1
    15    16    17 1
    16     8     7 1
    17    24    23 1
    18    17     1 1
    19     7     6 1
    20    23    22 ar
    21    23    28 ar
    22    29    28 1
    23     1     5 ar
    24     1     2 ar
    25    22    21 ar
    26     5    19 ar
    27    28    26 ar
    28    18     2 1
    29     2     3 ar
    30    21    25 ar
    31    21    20 1
    32    26    25 ar
    33    26    27 1
    34    19    20 1
    35    19     4 ar
    36     3     4 ar
    37     3    33 1
    38     6    61 1
    39     7    34 1
    40     8    35 1
    41     8    36 1
    42     9    37 1
    43     9    38 1
    44    10    39 1
    45    10    40 1
    46    60    62 1
    47    60    63 1
    48    13    41 1
    49    15    42 1
    50    15    43 1
    51    15    44 1
    52    16    45 1
    53    20    46 1
    54    22    47 1
    55    24    48 1
    56    24    49 1
    57    24    50 1
    58    25    51 1
    59    27    52 1
    60    27    53 1
    61    27    54 1
    62    30    55 1
    63    30    56 1
    64    31    57 1
    65    31    58 1
    66    32    59 1
@<TRIPOS>SUBSTRUCTURE
     1 X4G         1 TEMP              0 ****  ****    0 ROOT
