@<TRIPOS>MOLECULE
molecule
   63    67     1     0     0
SMALL
bcc


@<TRIPOS>ATOM
      1 C1           0.0000     0.0000     0.0000 cc         1 X4Z      -0.305800
      2 C2           1.3500     0.0000     0.0000 cd         1 X4Z       0.012400
      3 C3          -0.3880     0.0000    -1.4210 cc         1 X4Z       0.636600
      4 C4          -0.5090    -0.0040     1.4130 c3         1 X4Z       0.160200
      5 C5           1.8410     0.0000     1.4260 c3         1 X4Z       0.218600
      6 N6           1.7690     0.0010    -1.2780 nd         1 X4Z      -0.089600
      7 N7          -1.6090    -0.0000    -1.9200 nf         1 X4Z      -0.488700
      8 N8           0.7920    -0.0000    -2.1090 nc         1 X4Z      -0.229300
      9 N9           0.6610    -0.0070     2.3010 n          1 X4Z      -0.514800
     10 C10          2.6800    -1.2530     1.6870 c3         1 X4Z      -0.097600
     11 C11          2.6800     1.2520     1.6870 c3         1 X4Z      -0.097600
     12 C12         -2.6710    -0.1030    -1.1000 ca         1 X4Z       0.676300
     13 C13          0.6540    -0.0120     3.6480 c          1 X4Z       0.816100
     14 C14         -3.3520     1.0520    -0.6480 ca         1 X4Z      -0.295700
     15 N15         -3.1100    -1.3020    -0.6990 nb         1 X4Z      -0.733000
     16 N16         -0.5120    -0.1140     4.3160 ns         1 X4Z      -0.595900
     17 O17          1.7010     0.0760     4.2620 o          1 X4Z      -0.650100
     18 C18         -4.4570     0.8890     0.2090 ca         1 X4Z       0.501100
     19 S19         -3.0860     2.7610    -0.9530 ss         1 X4Z      -0.042500
     20 C20         -4.1480    -1.4040     0.1010 ca         1 X4Z       0.700300
     21 C21         -0.5130    -0.2130     5.7770 c3         1 X4Z       0.181000
     22 N22         -4.8080    -0.3610     0.5530 nb         1 X4Z      -0.718000
     23 C23         -5.0400     2.1620     0.5790 cc         1 X4Z      -0.250800
     24 C24         -4.4430     3.2200     0.0590 cd         1 X4Z      -0.059400
     25 C25         -4.6000    -2.7790     0.5210 c3         1 X4Z      -0.122400
     26 C26         -1.8570     0.2160     6.3090 ca         1 X4Z      -0.081300
     27 C27         -0.2410    -1.6610     6.1910 c3         1 X4Z       0.148800
     28 C28         -1.9330     0.9800     7.4580 ca         1 X4Z      -0.115000
     29 C29         -3.0120    -0.1500     5.6430 ca         1 X4Z      -0.115000
     30 N30         -0.1010    -1.7350     7.6510 n3         1 X4Z      -0.730600
     31 C31         -3.1650     1.3750     7.9450 ca         1 X4Z      -0.125000
     32 C32         -4.2440     0.2440     6.1310 ca         1 X4Z      -0.125000
     33 C33         -4.3210     1.0050     7.2830 ca         1 X4Z      -0.127000
     34 C34         -0.0880    -3.1310     8.1090 c3         1 X4Z       0.150600
     35 C35          1.1020    -1.0230     8.1010 c3         1 X4Z       0.150600
     36 H41C        -1.0660    -0.9190     1.5760 h1         1 X4Z       0.066700
     37 H42C        -1.0660     0.9090     1.5810 h1         1 X4Z       0.066700
     38 H101         2.0290    -2.1160     1.7530 hc         1 X4Z       0.055033
     39 H102         3.2220    -1.1370     2.6180 hc         1 X4Z       0.055033
     40 H103         3.3830    -1.3920     0.8750 hc         1 X4Z       0.055033
     41 H111         3.3610     1.4090     0.8590 hc         1 X4Z       0.055033
     42 H112         2.0270     2.1110     1.7840 hc         1 X4Z       0.055033
     43 H113         3.2460     1.1230     2.6010 hc         1 X4Z       0.055033
     44 H16         -1.3780    -0.0940     3.8160 hn         1 X4Z       0.315500
     45 H21          0.2580     0.4300     6.1840 h1         1 X4Z       0.087700
     46 H23         -5.9000     2.2410     1.2330 ha         1 X4Z       0.172000
     47 H24         -4.7530     4.2430     0.2360 h4         1 X4Z       0.184000
     48 H251        -5.2690    -3.1840    -0.2280 hc         1 X4Z       0.065033
     49 H252        -3.7380    -3.4270     0.6240 hc         1 X4Z       0.065033
     50 H253        -5.1170    -2.7150     1.4710 hc         1 X4Z       0.065033
     51 H271         0.6740    -2.0040     5.7220 h1         1 X4Z       0.045200
     52 H272        -1.0650    -2.2880     5.8740 h1         1 X4Z       0.045200
     53 H28         -1.0280     1.2700     7.9770 ha         1 X4Z       0.128500
     54 H29         -2.9510    -0.7460     4.7400 ha         1 X4Z       0.128500
     55 H31         -3.2250     1.9720     8.8460 ha         1 X4Z       0.130500
     56 H32         -5.1500    -0.0440     5.6110 ha         1 X4Z       0.130500
     57 H341         0.7710    -3.6410     7.6890 h1         1 X4Z       0.034033
     58 H342        -0.0290    -3.1560     9.1900 h1         1 X4Z       0.034033
     59 H343        -0.9960    -3.6260     7.7850 h1         1 X4Z       0.034033
     60 H351         1.3240    -1.3000     9.1250 h1         1 X4Z       0.034033
     61 H352         0.9320     0.0460     8.0450 h1         1 X4Z       0.034033
     62 H353         1.9380    -1.2890     7.4660 h1         1 X4Z       0.034033
     63 H33         -5.2860     1.3140     7.6650 ha         1 X4Z       0.129000
@<TRIPOS>BOND
     1     1     2 2
     2     1     3 1
     3     1     4 1
     4     2     5 1
     5     2     6 1
     6     3     7 2
     7     3     8 1
     8     4     9 1
     9     5     9 1
    10     5    10 1
    11     5    11 1
    12     6     8 2
    13     7    12 1
    14     9    13 1
    15    12    14 ar
    16    12    15 ar
    17    13    16 1
    18    13    17 2
    19    14    18 ar
    20    14    19 1
    21    15    20 ar
    22    16    21 1
    23    18    22 ar
    24    18    23 1
    25    19    24 1
    26    20    22 ar
    27    20    25 1
    28    21    26 1
    29    21    27 1
    30    23    24 2
    31    26    28 ar
    32    26    29 ar
    33    27    30 1
    34    28    31 ar
    35    29    32 ar
    36    30    34 1
    37    30    35 1
    38    31    33 ar
    39    32    33 ar
    40     4    36 1
    41     4    37 1
    42    10    38 1
    43    10    39 1
    44    10    40 1
    45    11    41 1
    46    11    42 1
    47    11    43 1
    48    16    44 1
    49    21    45 1
    50    23    46 1
    51    24    47 1
    52    25    48 1
    53    25    49 1
    54    25    50 1
    55    27    51 1
    56    27    52 1
    57    28    53 1
    58    29    54 1
    59    31    55 1
    60    32    56 1
    61    34    57 1
    62    34    58 1
    63    34    59 1
    64    35    60 1
    65    35    61 1
    66    35    62 1
    67    33    63 1
@<TRIPOS>SUBSTRUCTURE
     1 X4Z         1 TEMP              0 ****  ****    0 ROOT
