@<TRIPOS>MOLECULE
X55
   39    41     1     0     0
SMALL
bcc


@<TRIPOS>ATOM
      1 CAA          0.0000     0.0000     0.0000 c3         1 X55       0.231700
      2 OAC          4.1750    -0.1380     0.1590 oh         1 X55      -0.478100
      3 BrAD         4.1560     0.3160     5.3590 br         1 X55      -0.116100
      4 CAE          0.4850    -4.0940     1.4520 ca         1 X55      -0.097000
      5 CAF         -0.4080    -4.2360     2.4970 ca         1 X55      -0.107000
      6 CAG          1.6160    -3.3140     1.6110 ca         1 X55      -0.107000
      7 CAH         -0.1740    -3.5940     3.6990 ca         1 X55      -0.096000
      8 CAI          1.8520    -2.6760     2.8140 ca         1 X55      -0.096000
      9 CAJ          4.0580     0.0770     2.5250 ca         1 X55      -0.107000
     10 CAK          1.2940     0.2060     2.3670 ca         1 X55      -0.160000
     11 CAL         -1.4900     0.5270     5.5660 c3         1 X55       0.022700
     12 CAM          1.2110    -2.1130     5.1670 c3         1 X55       0.115300
     13 OAN          1.4290     0.0000     0.0000 os         1 X55      -0.286900
     14 SAO         -0.3270     1.5380     4.5660 ss         1 X55      -0.388200
     15 CAP         -0.8160    -0.8310     5.5690 c          1 X55       0.620500
     16 CAQ          0.9530    -2.8090     3.8550 ca         1 X55      -0.130300
     17 CAR          3.4330     0.0000     1.2910 ca         1 X55       0.106100
     18 CAS          3.3010     0.2120     3.6750 ca         1 X55       0.022100
     19 CAT          2.0460     0.0650     1.2110 ca         1 X55       0.138100
     20 CAU          1.9220     0.2720     3.5960 ca         1 X55      -0.068300
     21 CAV          1.1020     0.4190     4.8520 c3         1 X55       0.200100
     22 NAW          0.4620    -0.8550     5.2080 n          1 X55      -0.134800
     23 HAA         -0.3610     0.9050     0.4740 h1         1 X55       0.004367
     24 HAAA        -0.3610    -0.8630     0.5470 h1         1 X55       0.004367
     25 HAAB        -0.3610    -0.0420    -1.0210 h1         1 X55       0.004367
     26 HOAC         4.6410     0.6640    -0.0120 ho         1 X55       0.404000
     27 HAF         -1.2930    -4.8490     2.3740 ha         1 X55       0.107500
     28 HAG          2.3180    -3.2060     0.7930 ha         1 X55       0.107500
     29 HAH         -0.8760    -3.7020     4.5170 ha         1 X55       0.126500
     30 HAI          2.7360    -2.0630     2.9370 ha         1 X55       0.126500
     31 HAJ          5.1400     0.0800     2.5850 ha         1 X55       0.131000
     32 HAK          0.2130     0.2530     2.3070 ha         1 X55       0.157000
     33 HAL         -1.5690     0.9170     6.5730 h1         1 X55       0.073200
     34 HALA        -2.4600     0.4730     5.0880 h1         1 X55       0.073200
     35 HAM          2.2700    -1.9060     5.2640 h1         1 X55       0.041700
     36 HAMA         0.8910    -2.7500     5.9830 h1         1 X55       0.041700
     37 HAV          1.7100     0.7810     5.6730 h2         1 X55       0.075700
     38 OAB         -1.4100    -1.8400     5.8820 o          1 X55      -0.661500
     39 HAE          0.3000    -4.5950     0.5100 ha         1 X55       0.102000
@<TRIPOS>BOND
     1     1    13 1   
     2     1    23 1   
     3     1    24 1   
     4     1    25 1   
     5     2    17 1   
     6     2    26 1   
     7     3    18 1   
     8     4     5 ar  
     9     4     6 ar  
    10     4    39 1   
    11     5     7 ar  
    12     5    27 1   
    13     6     8 ar  
    14     6    28 1   
    15     7    16 ar  
    16     7    29 1   
    17     8    16 ar  
    18     8    30 1   
    19     9    17 ar  
    20     9    18 ar  
    21     9    31 1   
    22    10    19 ar  
    23    10    20 ar  
    24    10    32 1   
    25    11    14 1   
    26    11    15 1   
    27    11    33 1   
    28    11    34 1   
    29    12    16 1   
    30    12    22 1   
    31    12    35 1   
    32    12    36 1   
    33    13    19 1   
    34    14    21 1   
    35    15    22 1   
    36    15    38 2   
    37    17    19 ar  
    38    18    20 ar  
    39    20    21 1   
    40    21    22 1   
    41    21    37 1   
@<TRIPOS>SUBSTRUCTURE
     1 X55         1 TEMP              0 ****  ****    0 ROOT
