@<TRIPOS>MOLECULE
molecule
   71    75     1     0     0
SMALL
bcc


@<TRIPOS>ATOM
      1 C4           0.0000     0.0000     0.0000 ca         1 X5G       0.616800
      2 C5           1.3940     0.0000     0.0000 ca         1 X5G      -0.461600
      3 C6           2.0540     0.0000     1.2160 ca         1 X5G       0.516200
      4 N1           1.3480    -0.0010     2.3350 nb         1 X5G      -0.801000
      5 N3          -0.6440     0.0050     1.1610 nb         1 X5G      -0.829000
      6 CAN          4.7190    -1.5940    11.2670 c3         1 X5G       0.142300
      7 CAK          5.9830    -2.4630    11.1410 c3         1 X5G      -0.087900
      8 CAL          6.2930    -2.5070     9.6260 c3         1 X5G      -0.087900
      9 CAO          5.5690    -1.2480     9.0880 c3         1 X5G       0.142300
     10 NBG          4.3250    -1.1990     9.8970 n3         1 X5G      -0.692600
     11 CAP          3.7410     0.1490     9.8850 c3         1 X5G       0.153800
     12 CAM          3.1220     0.4250     8.5130 c3         1 X5G       0.150400
     13 CBE          1.3590    -0.3500     7.1180 ca         1 X5G       0.091100
     14 CAZ          1.7650    -1.0930     6.0190 ca         1 X5G      -0.080300
     15 CAC          2.9440    -2.0250     6.1340 c3         1 X5G      -0.044800
     16 CAH          1.0910    -0.9780     4.8190 ca         1 X5G      -0.136500
     17 CAY          0.2710     0.5030     7.0150 ca         1 X5G      -0.080300
     18 CAB         -0.1730     1.3050     8.2110 c3         1 X5G      -0.044800
     19 CAG         -0.4050     0.6200     5.8160 ca         1 X5G      -0.136500
     20 CBA          0.0050    -0.1190     4.7140 ca         1 X5G       0.155600
     21 C2           0.0240    -0.0000     2.3050 ca         1 X5G       0.968900
     22 NBI         -0.7070     0.0020    -1.2010 na         1 X5G      -0.082900
     23 CAJ         -2.0690     0.0020    -1.3260 cc         1 X5G      -0.100300
     24 CAI         -0.1550     0.0080    -2.4530 cc         1 X5G      -0.155300
     25 CAX         -1.1570     0.0070    -3.3540 cd         1 X5G      -0.131300
     26 CAA         -1.0050     0.0130    -4.8530 c3         1 X5G      -0.016800
     27 CBB         -2.3710     0.0030    -2.6390 cd         1 X5G      -0.148300
     28 CAQ         -3.7560     0.0030    -3.2350 c3         1 X5G       0.202100
     29 NBH         -4.1110    -1.3600    -3.6490 nq         1 X5G      -0.625600
     30 CAS         -5.5370    -1.4470    -4.0150 cy         1 X5G       0.090800
     31 CAR         -3.7910    -1.5810    -5.0720 cy         1 X5G       0.090800
     32 CBF         -5.1230    -2.3320    -5.1980 cy         1 X5G       0.111100
     33 OAD         -5.0410    -3.7250    -4.8870 oh         1 X5G      -0.564800
     34 H1           1.9480    -0.0020    -0.9310 ha         1 X5G       0.151000
     35 H2           3.1370    -0.0000     1.2510 h4         1 X5G       0.033100
     36 H4           4.9360    -0.7120    11.8570 h1         1 X5G       0.040450
     37 H5           5.7900    -3.4620    11.5130 hc         1 X5G       0.048700
     38 H6           6.8060    -2.0070    11.6780 hc         1 X5G       0.048700
     39 H7           7.3600    -2.4370     9.4530 hc         1 X5G       0.048700
     40 H8           5.8820    -3.4040     9.1790 hc         1 X5G       0.048700
     41 H9           5.3350    -1.3630     8.0370 h1         1 X5G       0.040450
     42 H10          6.1680    -0.3620     9.2580 h1         1 X5G       0.040450
     43 H12          4.5150     0.8790    10.0860 h1         1 X5G       0.044700
     44 H13          2.9740     0.2170    10.6480 h1         1 X5G       0.044700
     45 H14          2.7690     1.4490     8.4750 h1         1 X5G       0.029200
     46 H15          3.8670     0.2710     7.7430 h1         1 X5G       0.029200
     47 H16          3.8620    -1.4630     6.0170 hc         1 X5G       0.046867
     48 H17          2.9340    -2.5020     7.1070 hc         1 X5G       0.046867
     49 H18          2.8820    -2.7820     5.3610 hc         1 X5G       0.046867
     50 H19          1.4100    -1.5560     3.9610 ha         1 X5G       0.143500
     51 H20         -0.0930     0.6960     9.1040 hc         1 X5G       0.046867
     52 H21         -1.2030     1.6130     8.0760 hc         1 X5G       0.046867
     53 H22          0.4560     2.1810     8.3130 hc         1 X5G       0.046867
     54 H23         -1.2540     1.2880     5.7350 ha         1 X5G       0.143500
     55 H25         -2.7810    -0.0010    -0.5100 h4         1 X5G       0.185000
     56 H26          0.9040     0.0120    -2.6800 h4         1 X5G       0.169000
     57 H27         -1.0120    -1.0060    -5.2210 hc         1 X5G       0.038700
     58 H28         -1.8260     0.5620    -5.2970 hc         1 X5G       0.038700
     59 H29         -0.0680     0.4860    -5.1190 hc         1 X5G       0.038700
     60 H30         -4.4670     0.3520    -2.4950 h1         1 X5G       0.039700
     61 H31         -3.7790     0.6600    -4.0960 h1         1 X5G       0.039700
     62 H33         -5.9520    -0.4950    -4.3250 h1         1 X5G       0.061950
     63 H34         -6.1300    -1.9760    -3.2790 h1         1 X5G       0.061950
     64 H35         -3.7680    -0.6620    -5.6460 h1         1 X5G       0.061950
     65 H36         -2.9290    -2.2220    -5.2160 h1         1 X5G       0.061950
     66 H37         -5.6570    -2.0990    -6.1110 h1         1 X5G       0.040700
     67 H38         -5.4830    -4.2230    -5.5540 ho         1 X5G       0.399000
     68 NAV         -0.6800    -0.0010     3.4980 nu         1 X5G      -0.753300
     69 OAW          2.0240    -0.4650     8.2990 os         1 X5G      -0.334900
     70 H3           3.9230    -2.1670    11.7280 h1         1 X5G       0.040450
     71 H24         -1.6790     0.0490     3.4900 hn         1 X5G       0.468800
@<TRIPOS>BOND
     1    18    17 1
     2    12    11 1
     3    12    69 1
     4    19    17 ar
     5    19    20 ar
     6    10    11 1
     7    10     6 1
     8    10     9 1
     9    17    13 ar
    10    68    20 1
    11    68    21 1
    12     6     7 1
    13    20    16 ar
    14     7     8 1
    15     9     8 1
    16    13    69 1
    17    13    14 ar
    18     4    21 ar
    19     4     3 ar
    20    21     5 ar
    21    16    14 ar
    22     3     2 ar
    23    14    15 1
    24     5     1 ar
    25     2     1 ar
    26     1    22 1
    27    22    23 1
    28    22    24 1
    29    23    27 2
    30    24    25 2
    31    27    25 1
    32    27    28 1
    33    25    26 1
    34    28    29 1
    35    31    32 1
    36    31    29 1
    37    32    30 1
    38    32    33 1
    39    29    30 1
    40     2    34 1
    41     3    35 1
    42     6    70 1
    43     6    36 1
    44     7    37 1
    45     7    38 1
    46     8    39 1
    47     8    40 1
    48     9    41 1
    49     9    42 1
    50    11    43 1
    51    11    44 1
    52    12    45 1
    53    12    46 1
    54    15    47 1
    55    15    48 1
    56    15    49 1
    57    16    50 1
    58    18    51 1
    59    18    52 1
    60    18    53 1
    61    19    54 1
    62    68    71 1
    63    23    55 1
    64    24    56 1
    65    26    57 1
    66    26    58 1
    67    26    59 1
    68    28    60 1
    69    28    61 1
    70    30    62 1
    71    30    63 1
    72    31    64 1
    73    31    65 1
    74    32    66 1
    75    33    67 1
@<TRIPOS>SUBSTRUCTURE
     1 X5G         1 TEMP              0 ****  ****    0 ROOT
