@<TRIPOS>MOLECULE
X5G
   71    75     1     0     0
SMALL
bcc


@<TRIPOS>ATOM
      1 C4           0.0000     0.0000     0.0000 ca         1 X5G       0.394800
      2 C5           1.3940     0.0000     0.0000 ca         1 X5G      -0.440600
      3 C6           2.0540     0.0000     1.2160 ca         1 X5G       0.512200
      4 N1           1.3480    -0.0010     2.3350 nb         1 X5G      -0.700000
      5 N3          -0.6440     0.0050     1.1610 nb         1 X5G      -0.707000
      6 CAN          4.7190    -1.5940    11.2670 c3         1 X5G       0.145800
      7 CAK          5.9830    -2.4630    11.1410 c3         1 X5G      -0.028900
      8 CAL          6.2930    -2.5070     9.6260 c3         1 X5G      -0.028900
      9 CAO          5.5690    -1.2480     9.0880 c3         1 X5G       0.145800
     10 NBG          4.3250    -1.1990     9.8970 n3         1 X5G      -0.531600
     11 CAP          3.7410     0.1490     9.8850 c3         1 X5G       0.147800
     12 CAM          3.1220     0.4250     8.5130 c3         1 X5G       0.207400
     13 CBE          1.3590    -0.3500     7.1180 ca         1 X5G       0.103100
     14 CAZ          1.7650    -1.0930     6.0190 ca         1 X5G      -0.088300
     15 CAC          2.9440    -2.0250     6.1340 c3         1 X5G       0.060700
     16 CAH          1.0910    -0.9780     4.8190 ca         1 X5G      -0.108500
     17 CAY          0.2710     0.5030     7.0150 ca         1 X5G      -0.088300
     18 CAB         -0.1730     1.3050     8.2110 c3         1 X5G       0.060700
     19 CAG         -0.4050     0.6200     5.8160 ca         1 X5G      -0.108500
     20 CBA          0.0050    -0.1190     4.7140 ca         1 X5G      -0.009400
     21 C2           0.0240    -0.0000     2.3050 ca         1 X5G       0.726900
     22 NBI         -0.7070     0.0020    -1.2010 na         1 X5G       0.448100
     23 CAJ         -2.0690     0.0020    -1.3260 cc         1 X5G      -0.279300
     24 CAI         -0.1550     0.0080    -2.4530 cc         1 X5G      -0.337300
     25 CAX         -1.1570     0.0070    -3.3540 cd         1 X5G      -0.127300
     26 CAA         -1.0050     0.0130    -4.8530 c3         1 X5G       0.092200
     27 CBB         -2.3710     0.0030    -2.6390 cd         1 X5G      -0.151300
     28 CAQ         -3.7560     0.0030    -3.2350 c3         1 X5G       0.236100
     29 NBH         -4.1110    -1.3600    -3.6490 nq         1 X5G      -0.509600
     30 CAS         -5.5370    -1.4470    -4.0150 cy         1 X5G       0.099800
     31 CAR         -3.7910    -1.5810    -5.0720 cy         1 X5G       0.099800
     32 CBF         -5.1230    -2.3320    -5.1980 cy         1 X5G       0.156100
     33 OAD         -5.0410    -3.7250    -4.8870 oh         1 X5G      -0.542800
     34 H1           1.9480    -0.0020    -0.9310 ha         1 X5G       0.137000
     35 H2           3.1370    -0.0000     1.2510 h4         1 X5G      -0.016900
     36 H4           4.9360    -0.7120    11.8570 h1         1 X5G       0.012950
     37 H5           5.7900    -3.4620    11.5130 hc         1 X5G       0.018450
     38 H6           6.8060    -2.0070    11.6780 hc         1 X5G       0.018450
     39 H7           7.3600    -2.4370     9.4530 hc         1 X5G       0.018450
     40 H8           5.8820    -3.4040     9.1790 hc         1 X5G       0.018450
     41 H9           5.3350    -1.3630     8.0370 h1         1 X5G       0.012950
     42 H10          6.1680    -0.3620     9.2580 h1         1 X5G       0.012950
     43 H12          4.5150     0.8790    10.0860 h1         1 X5G       0.016200
     44 H13          2.9740     0.2170    10.6480 h1         1 X5G       0.016200
     45 H14          2.7690     1.4490     8.4750 h1         1 X5G      -0.002800
     46 H15          3.8670     0.2710     7.7430 h1         1 X5G      -0.002800
     47 H16          3.8620    -1.4630     6.0170 hc         1 X5G       0.012200
     48 H17          2.9340    -2.5020     7.1070 hc         1 X5G       0.012200
     49 H18          2.8820    -2.7820     5.3610 hc         1 X5G       0.012200
     50 H19          1.4100    -1.5560     3.9610 ha         1 X5G       0.120500
     51 H20         -0.0930     0.6960     9.1040 hc         1 X5G       0.012200
     52 H21         -1.2030     1.6130     8.0760 hc         1 X5G       0.012200
     53 H22          0.4560     2.1810     8.3130 hc         1 X5G       0.012200
     54 H23         -1.2540     1.2880     5.7350 ha         1 X5G       0.120500
     55 H25         -2.7810    -0.0010    -0.5100 h4         1 X5G       0.160000
     56 H26          0.9040     0.0120    -2.6800 h4         1 X5G       0.150000
     57 H27         -1.0120    -1.0060    -5.2210 hc         1 X5G       0.004033
     58 H28         -1.8260     0.5620    -5.2970 hc         1 X5G       0.004033
     59 H29         -0.0680     0.4860    -5.1190 hc         1 X5G       0.004033
     60 H30         -4.4670     0.3520    -2.4950 h1         1 X5G       0.010700
     61 H31         -3.7790     0.6600    -4.0960 h1         1 X5G       0.010700
     62 H33         -5.9520    -0.4950    -4.3250 h1         1 X5G       0.032450
     63 H34         -6.1300    -1.9760    -3.2790 h1         1 X5G       0.032450
     64 H35         -3.7680    -0.6620    -5.6460 h1         1 X5G       0.032450
     65 H36         -2.9290    -2.2220    -5.2160 h1         1 X5G       0.032450
     66 H37         -5.6570    -2.0990    -6.1110 h1         1 X5G       0.007700
     67 H38         -5.4830    -4.2230    -5.5540 ho         1 X5G       0.383000
     68 NAV         -0.6800    -0.0010     3.4980 nu         1 X5G      -0.282300
     69 OAW          2.0240    -0.4650     8.2990 os         1 X5G      -0.314900
     70 H3           3.9230    -2.1670    11.7280 h1         1 X5G       0.012950
     71 H24         -1.6790     0.0490     3.4900 hn         1 X5G       0.294800
@<TRIPOS>BOND
     1     1     2 ar  
     2     1     5 ar  
     3     1    22 1   
     4     2     3 ar  
     5     2    34 1   
     6     3     4 ar  
     7     3    35 1   
     8     4    21 ar  
     9     5    21 ar  
    10     6     7 1   
    11     6    10 1   
    12     6    36 1   
    13     6    70 1   
    14     7     8 1   
    15     7    37 1   
    16     7    38 1   
    17     8     9 1   
    18     8    39 1   
    19     8    40 1   
    20     9    10 1   
    21     9    41 1   
    22     9    42 1   
    23    10    11 1   
    24    11    12 1   
    25    11    43 1   
    26    11    44 1   
    27    12    45 1   
    28    12    46 1   
    29    12    69 1   
    30    13    14 ar  
    31    13    17 ar  
    32    13    69 1   
    33    14    15 1   
    34    14    16 ar  
    35    15    47 1   
    36    15    48 1   
    37    15    49 1   
    38    16    20 ar  
    39    16    50 1   
    40    17    18 1   
    41    17    19 ar  
    42    18    51 1   
    43    18    52 1   
    44    18    53 1   
    45    19    20 ar  
    46    19    54 1   
    47    20    68 1   
    48    21    68 1   
    49    22    23 1   
    50    22    24 1   
    51    23    27 2   
    52    23    55 1   
    53    24    25 2   
    54    24    56 1   
    55    25    26 1   
    56    25    27 1   
    57    26    57 1   
    58    26    58 1   
    59    26    59 1   
    60    27    28 1   
    61    28    29 1   
    62    28    60 1   
    63    28    61 1   
    64    29    30 1   
    65    29    31 1   
    66    30    32 1   
    67    30    62 1   
    68    30    63 1   
    69    31    32 1   
    70    31    64 1   
    71    31    65 1   
    72    32    33 1   
    73    32    66 1   
    74    33    67 1   
    75    68    71 1   
@<TRIPOS>SUBSTRUCTURE
     1 X5G         1 TEMP              0 ****  ****    0 ROOT
