@<TRIPOS>MOLECULE
molecule
   32    33     1     0     0
SMALL
bcc


@<TRIPOS>ATOM
      1 N01          0.0000     0.0000     0.0000 nu         1 X62      -0.757600
      2 N02          3.1190     0.1250     2.7920 nz         1 X62      -0.675400
      3 N03         -4.2200    -1.0850     0.6790 nb         1 X62      -0.721500
      4 N04         -4.1480     1.2090     0.8870 nb         1 X62      -0.721500
      5 C06          3.6930     0.0000     0.0000 ca         1 X62       0.000000
      6 C07          2.3760     0.0000     0.4670 ca         1 X62      -0.320600
      7 C08          1.3140    -0.0020    -0.4520 ca         1 X62       0.315600
      8 C09          1.5830    -0.0040    -1.8140 ca         1 X62      -0.211000
      9 C10          2.8910    -0.0060    -2.2600 ca         1 X62       0.156400
     10 C11          3.9420    -0.0040    -1.3540 ca         1 X62      -0.197200
     11 C13         -1.1020     0.1220    -0.9570 c3         1 X62       0.275100
     12 C14         -2.4150     0.0970    -0.2160 ca         1 X62      -0.388900
     13 C15         -3.0700    -1.1010     0.0250 ca         1 X62       0.489200
     14 C16         -4.7430     0.0510     1.0990 ca         1 X62       0.788000
     15 C17         -2.9950     1.2690     0.2400 ca         1 X62       0.489200
     16 O18          0.9600    -0.1030     2.3190 o          1 X62      -0.470100
     17 O19          5.5620    -0.0020    -3.0440 o          1 X62      -0.173000
     18 O20          6.2630     0.0080    -1.0540 o          1 X62      -0.173000
     19 Cl21         3.2210    -0.0110    -3.9650 cl         1 X62       0.030600
     20 Cl22        -6.2550     0.0230     1.9530 cl         1 X62      -0.065000
     21 HN01        -0.1940    -0.1250     0.9740 hn         1 X62       0.484800
     22 H102         3.7380    -0.6560     2.6960 hn         1 X62       0.483467
     23 H202         3.6110     0.9690     2.5740 hn         1 X62       0.483467
     24 H06          4.5170     0.0010     0.7030 ha         1 X62       0.146000
     25 H09          0.7680    -0.0070    -2.5270 ha         1 X62       0.187000
     26 H113        -1.0660    -0.7050    -1.6560 h1         1 X62       0.069200
     27 H213        -1.0100     1.0560    -1.4970 h1         1 X62       0.069200
     28 H15         -2.7380    -2.0080    -0.4650 h4         1 X62       0.052600
     29 H17         -2.8310     2.3350     0.1310 h4         1 X62       0.052600
     30 H023         2.7400     0.1390     3.7180 hn         1 X62       0.483467
     31 C12          2.1030     0.0040     1.9150 c          1 X62       0.524700
     32 N05          5.3380     0.0010    -1.8460 no         1 X62       0.296200
@<TRIPOS>BOND
     1     1     7 1
     2     1    11 1
     3     1    21 1
     4     2    31 1
     5     2    22 1
     6     2    23 1
     7     3    14 ar
     8    32    18 1
     9     5    10 ar
    10     5    24 1
    11     6     5 ar
    12     6     7 ar
    13     7     8 ar
    14     8     9 ar
    15     8    25 1
    16     9    19 1
    17    10    32 1
    18    10     9 ar
    19    31     6 1
    20    11    12 1
    21    11    26 1
    22    11    27 1
    23    12    15 ar
    24    13    12 ar
    25    13     3 ar
    26    13    28 1
    27    14     4 ar
    28    14    20 1
    29    15     4 ar
    30    15    29 1
    31    16    31 2
    32    17    32 1
    33    30     2 1
@<TRIPOS>SUBSTRUCTURE
     1 X62         1 TEMP              0 ****  ****    0 ROOT
