@<TRIPOS>MOLECULE
X63
   43    44     1     0     0
SMALL
bcc


@<TRIPOS>ATOM
      1 N01          0.0000     0.0000     0.0000 nu         1 X63      -0.355600
      2 N02          3.1200    -0.1390     2.7880 nz         1 X63       0.208600
      3 N03         -4.2290    -1.0800     0.6360 nb         1 X63      -0.692000
      4 N04         -4.1370     1.2120     0.9330 nb         1 X63      -0.692000
      5 C08          3.6970     0.0000     0.0000 ca         1 X63       0.098000
      6 C09          2.3770     0.0000     0.4660 ca         1 X63      -0.382600
      7 C10          1.3130     0.0010    -0.4530 ca         1 X63       0.213600
      8 C11          1.5820     0.0010    -1.8130 ca         1 X63      -0.331000
      9 C12          2.8980     0.0000    -2.2570 ca         1 X63       0.195600
     10 C13          3.9490     0.0060    -1.3420 ca         1 X63      -0.526200
     11 C15         -1.1020     0.1680    -0.9510 c3         1 X63       0.243100
     12 C16         -2.4150     0.1240    -0.2120 ca         1 X63      -0.493900
     13 C17         -3.0790    -1.0770    -0.0180 ca         1 X63       0.524700
     14 C18         -4.7460     0.0470     1.1020 ca         1 X63       0.721900
     15 C19         -2.9840     1.2850     0.2890 ca         1 X63       0.524700
     16 C20          2.0670     0.0690    -4.5860 c3         1 X63       0.134800
     17 C21          2.6330     0.0610    -6.0070 c3         1 X63       0.217400
     18 O22          0.9650     0.1230     2.3150 o          1 X63      -0.516100
     19 O23          3.2810    -1.1880    -6.2550 oh         1 X63      -0.592800
     20 O24          6.1870     0.6840    -1.2490 o          1 X63      -0.431000
     21 O25          5.6580    -0.6390    -2.8040 o          1 X63      -0.431000
     22 HN01        -0.1950    -0.1670     0.9670 hn         1 X63       0.341800
     23 H102         3.7460     0.6360     2.6990 hn         1 X63       0.241800
     24 H202         2.7780    -0.1850     3.7280 hn         1 X63       0.241800
     25 HN05         4.1150    -0.0050    -3.9440 hn         1 X63       0.341800
     26 H106        -6.3530     0.8530     2.1370 hn         1 X63       0.282800
     27 H206        -6.4220    -0.8650     1.9150 hn         1 X63       0.282800
     28 H08          4.5190    -0.0010     0.7050 ha         1 X63       0.090000
     29 H11          0.7700    -0.0770    -2.5250 ha         1 X63       0.157000
     30 H115        -1.0030     1.1220    -1.4550 h1         1 X63       0.028700
     31 H215        -1.0730    -0.6310    -1.6820 h1         1 X63       0.028700
     32 H17         -2.6600    -2.0020    -0.3960 h4         1 X63      -0.017400
     33 H19         -2.4900     2.2400     0.1540 h4         1 X63      -0.017400
     34 H120         1.5000     0.9790    -4.4280 h1         1 X63       0.034200
     35 H220         1.4180    -0.7880    -4.4510 h1         1 X63       0.034200
     36 H121         3.3490     0.8670    -6.1150 h1         1 X63       0.004200
     37 H221         1.8270     0.1970    -6.7180 h1         1 X63       0.004200
     38 HO23         3.3990    -1.3020    -7.1840 ho         1 X63       0.412000
     39 H023         3.6120    -0.9900     2.5980 hn         1 X63       0.241800
     40 C14          2.1050    -0.0010     1.9120 c          1 X63       0.368700
     41 N05          3.1680     0.0050    -3.6220 nu         1 X63      -0.323600
     42 N06         -5.9520     0.0080     1.7800 nv         1 X63      -0.459500
     43 N07          5.3480     0.0170    -1.8260 no         1 X63       1.046200
@<TRIPOS>BOND
     1     1     7 1   
     2     1    11 1   
     3     1    22 1   
     4     2    23 1   
     5     2    24 1   
     6     2    39 1   
     7     2    40 1   
     8     3    13 ar  
     9     3    14 ar  
    10     4    14 ar  
    11     4    15 ar  
    12     5     6 ar  
    13     5    10 ar  
    14     5    28 1   
    15     6     7 ar  
    16     6    40 1   
    17     7     8 ar  
    18     8     9 ar  
    19     8    29 1   
    20     9    10 ar  
    21     9    41 1   
    22    10    43 1   
    23    11    12 1   
    24    11    30 1   
    25    11    31 1   
    26    12    13 ar  
    27    12    15 ar  
    28    13    32 1   
    29    14    42 1   
    30    15    33 1   
    31    16    17 1   
    32    16    34 1   
    33    16    35 1   
    34    16    41 1   
    35    17    19 1   
    36    17    36 1   
    37    17    37 1   
    38    18    40 2   
    39    19    38 1   
    40    20    43 1   
    41    21    43 1   
    42    25    41 1   
    43    26    42 1   
    44    27    42 1   
@<TRIPOS>SUBSTRUCTURE
     1 X63         1 TEMP              0 ****  ****    0 ROOT
