@<TRIPOS>MOLECULE
molecule
   42    44     1     0     0
SMALL
bcc


@<TRIPOS>ATOM
      1 N01          0.0000     0.0000     0.0000 nc         1 X64      -0.779000
      2 N02         -1.9630    -0.0010     1.3310 nu         1 X64      -0.731300
      3 N03          2.0720     0.0010    -1.1590 nv         1 X64      -1.045500
      4 N04         -6.3890     1.9850    -3.1570 nz         1 X64      -0.806500
      5 N05          3.0750    -2.2770     3.3290 no         1 X64       0.288200
      6 C06          1.8660     0.0000     1.2680 cd         1 X64      -0.254000
      7 C07          1.3130     0.0000     0.0000 cc         1 X64       0.744200
      8 C08         -0.5970    -0.0000     1.1580 cd         1 X64       0.681300
      9 C09         -2.8090     0.1340     0.2270 ca         1 X64       0.267600
     10 C10          3.2400    -0.0000     1.5730 c          1 X64       0.631300
     11 C11          3.6850     0.1130     2.9800 ca         1 X64      -0.104600
     12 C12          3.6060    -0.9900     3.8310 ca         1 X64      -0.138200
     13 C13          4.0230    -0.8780     5.1420 ca         1 X64      -0.068000
     14 C14          4.5170     0.3250     5.6130 ca         1 X64      -0.118000
     15 C15          4.5990     1.4230     4.7750 ca         1 X64      -0.089000
     16 C16          4.1910     1.3220     3.4610 ca         1 X64      -0.104000
     17 C17         -4.0930    -0.3940     0.2640 ca         1 X64      -0.167500
     18 C18         -4.9260    -0.2580    -0.8290 ca         1 X64      -0.004500
     19 C19         -4.4830     0.4020    -1.9600 ca         1 X64      -0.377500
     20 C20         -3.2040     0.9290    -2.0010 ca         1 X64      -0.004500
     21 C21         -2.3680     0.8010    -0.9090 ca         1 X64      -0.167500
     22 O22          4.0640    -0.0930     0.6800 o          1 X64      -0.478100
     23 O23         -6.5010    -0.4780    -3.2600 o          1 X64      -0.523800
     24 O24         -4.7070     0.7600    -4.4820 o          1 X64      -0.523800
     25 O25          2.9040    -3.2070     4.0970 o          1 X64      -0.195000
     26 O26          2.8110    -2.4070     2.1460 o          1 X64      -0.195000
     27 S27          0.5430    -0.0010     2.4300 ss         1 X64      -0.127300
     28 S28         -5.5480     0.5730    -3.3530 sy         1 X64       1.223200
     29 HN02        -2.3500    -0.0990     2.2490 hn         1 X64       0.477800
     30 H103         2.4070     0.8650    -1.5370 hn         1 X64       0.453800
     31 H203         2.2680    -0.8600    -1.6300 hn         1 X64       0.453800
     32 H104        -6.8500     1.9780    -2.2680 hn         1 X64       0.490133
     33 H204        -7.0700     2.0720    -3.8850 hn         1 X64       0.490133
     34 H13          3.9630    -1.7340     5.8030 ha         1 X64       0.174000
     35 H14          4.8300     0.4110     6.6470 ha         1 X64       0.156000
     36 H15          4.9820     2.3630     5.1520 ha         1 X64       0.152000
     37 H16          4.3990     2.1660     2.8150 ha         1 X64       0.158000
     38 H17         -4.4410    -0.9110     1.1500 ha         1 X64       0.180500
     39 H18         -5.9280    -0.6700    -0.8000 ha         1 X64       0.155500
     40 H20         -2.8600     1.4480    -2.8880 ha         1 X64       0.155500
     41 H21         -1.3670     1.2140    -0.9410 ha         1 X64       0.180500
     42 H043        -5.7580     2.7600    -3.2160 hn         1 X64       0.490133
@<TRIPOS>BOND
     1     1     7 1
     2     2     8 1
     3     2    29 1
     4     3    30 1
     5     3    31 1
     6     4    28 1
     7     4    32 1
     8     4    33 1
     9     5    25 1
    10     5    26 1
    11     6    10 1
    12     6     7 2
    13     7     3 1
    14     8     1 2
    15     9     2 1
    16    10    22 2
    17    11    10 1
    18    12     5 1
    19    12    11 ar
    20    13    12 ar
    21    13    34 1
    22    14    13 ar
    23    14    15 ar
    24    14    35 1
    25    15    16 ar
    26    15    36 1
    27    16    11 ar
    28    16    37 1
    29    17     9 ar
    30    17    38 1
    31    18    17 ar
    32    18    39 1
    33    19    18 ar
    34    19    20 ar
    35    20    21 ar
    36    20    40 1
    37    21     9 ar
    38    21    41 1
    39    24    28 2
    40    27     8 1
    41    27     6 1
    42    28    23 2
    43    28    19 1
    44    42     4 1
@<TRIPOS>SUBSTRUCTURE
     1 X64         1 TEMP              0 ****  ****    0 ROOT
