@<TRIPOS>MOLECULE
molecule
   40    41     1     0     0
SMALL
bcc


@<TRIPOS>ATOM
      1 C1           0.0000     0.0000     0.0000 ca         1 X65      -0.211000
      2 C2           1.3800     0.0000     0.0000 ca         1 X65       0.039000
      3 C3           2.0820     0.0000     1.1950 ca         1 X65      -0.185200
      4 C4           1.4100    -0.0000     2.3970 ca         1 X65      -0.010000
      5 C5           0.0130    -0.0000     2.4150 ca         1 X65      -0.308600
      6 C6          -0.6950     0.0060     1.2020 ca         1 X65       0.309600
      7 N7          -2.0840     0.0070     1.2060 nu         1 X65      -0.782600
      8 N8           3.5630    -0.0000     1.1770 no         1 X65       0.293200
      9 O9           4.1830    -0.0010     2.2260 o          1 X65      -0.167000
     10 O10          4.1600    -0.0000     0.1170 o          1 X65      -0.167000
     11 C11         -0.7130    -0.0010     3.6980 c          1 X65       0.537700
     12 N12         -0.0330    -0.1230     4.8560 nz         1 X65      -0.677400
     13 O13         -1.9240     0.1090     3.7130 o          1 X65      -0.482100
     14 C14         -2.8190    -0.1100    -0.0550 c3         1 X65       0.257100
     15 C15         -7.0180    -0.0370     0.7320 ca         1 X65      -0.337500
     16 C16         -6.3380     1.1440     0.4940 ca         1 X65      -0.021000
     17 C17         -4.9800     1.1200     0.2390 ca         1 X65      -0.114500
     18 C18         -4.3000    -0.0840     0.2220 ca         1 X65      -0.036300
     19 C19         -4.9800    -1.2640     0.4600 ca         1 X65      -0.114500
     20 C20         -6.3380    -1.2410     0.7210 ca         1 X65      -0.021000
     21 O22         -9.0430    -1.1950     1.7790 o          1 X65      -0.506300
     22 O23         -9.0420     1.2930     1.5490 o          1 X65      -0.506300
     23 N24         -9.5240    -0.1410    -0.4000 nz         1 X65      -0.808500
     24 H1          -0.5410     0.0020    -0.9380 ha         1 X65       0.175000
     25 H2           1.9180    -0.0020    -0.9400 ha         1 X65       0.200000
     26 H4           1.9640    -0.0020     3.3280 ha         1 X65       0.150000
     27 HN7         -2.5820     0.1190     2.0670 hn         1 X65       0.482800
     28 H112        -0.6780    -0.1470     5.6210 hn         1 X65       0.485800
     29 H212         0.5850     0.6570     4.9650 hn         1 X65       0.485800
     30 H114        -2.5580     0.7170    -0.7030 h1         1 X65       0.076200
     31 H214        -2.5590    -1.0440    -0.5390 h1         1 X65       0.076200
     32 H16         -6.8710     2.0870     0.5050 ha         1 X65       0.168000
     33 H17         -4.4480     2.0450     0.0530 ha         1 X65       0.168500
     34 H19         -4.4470    -2.2070     0.4510 ha         1 X65       0.168500
     35 H20         -6.8700    -2.1660     0.9070 ha         1 X65       0.168000
     36 H124        -9.2620    -1.0010    -0.8400 hn         1 X65       0.497133
     37 H224        -9.2300     0.6280    -0.9700 hn         1 X65       0.497133
     38 H123         0.4850    -0.9800     4.8500 hn         1 X65       0.485800
     39 H243       -10.5140    -0.1270    -0.2570 hn         1 X65       0.497133
     40 S21         -8.7490    -0.0070     1.0570 sy         1 X65       1.238200
@<TRIPOS>BOND
     1     1     2 ar
     2     1    24 1
     3     2    25 1
     4     3     8 1
     5     3     2 ar
     6     4     3 ar
     7     4    26 1
     8     5     4 ar
     9     5     6 ar
    10     6     1 ar
    11     7     6 1
    12     7    14 1
    13     7    27 1
    14     8    10 1
    15     9     8 1
    16    11     5 1
    17    12    11 1
    18    12    28 1
    19    12    29 1
    20    13    11 2
    21    14    18 1
    22    14    30 1
    23    14    31 1
    24    15    16 ar
    25    15    40 1
    26    16    32 1
    27    17    16 ar
    28    17    33 1
    29    18    17 ar
    30    19    18 ar
    31    19    20 ar
    32    19    34 1
    33    20    15 ar
    34    20    35 1
    35    40    23 1
    36    40    22 2
    37    21    40 2
    38    23    36 1
    39    23    37 1
    40    38    12 1
    41    39    23 1
@<TRIPOS>SUBSTRUCTURE
     1 X65         1 TEMP              0 ****  ****    0 ROOT
