@<TRIPOS>MOLECULE
X65
   40    41     1     0     0
SMALL
bcc


@<TRIPOS>ATOM
      1 C1           0.0000     0.0000     0.0000 ca         1 X65      -0.205000
      2 C2           1.3800     0.0000     0.0000 ca         1 X65       0.111000
      3 C3           2.0820     0.0000     1.1950 ca         1 X65      -0.468200
      4 C4           1.4100    -0.0000     2.3970 ca         1 X65       0.063000
      5 C5           0.0130    -0.0000     2.4150 ca         1 X65      -0.342600
      6 C6          -0.6950     0.0060     1.2020 ca         1 X65       0.183600
      7 N7          -2.0840     0.0070     1.2060 nu         1 X65      -0.372600
      8 N8           3.5630    -0.0000     1.1770 no         1 X65       1.039200
      9 O9           4.1830    -0.0010     2.2260 o          1 X65      -0.417000
     10 O10          4.1600    -0.0000     0.1170 o          1 X65      -0.417000
     11 C11         -0.7130    -0.0010     3.6980 c          1 X65       0.389700
     12 N12         -0.0330    -0.1230     4.8560 nz         1 X65       0.205600
     13 O13         -1.9240     0.1090     3.7130 o          1 X65      -0.510100
     14 C14         -2.8190    -0.1100    -0.0550 c3         1 X65       0.197100
     15 C15         -7.0180    -0.0370     0.7320 ca         1 X65      -0.223500
     16 C16         -6.3380     1.1440     0.4940 ca         1 X65       0.024000
     17 C17         -4.9800     1.1200     0.2390 ca         1 X65      -0.090500
     18 C18         -4.3000    -0.0840     0.2220 ca         1 X65      -0.042300
     19 C19         -4.9800    -1.2640     0.4600 ca         1 X65      -0.090500
     20 C20         -6.3380    -1.2410     0.7210 ca         1 X65       0.024000
     21 O22         -9.0430    -1.1950     1.7790 o          1 X65      -0.488300
     22 O23         -9.0420     1.2930     1.5490 o          1 X65      -0.488300
     23 N24         -9.5240    -0.1410    -0.4000 nz         1 X65      -0.123500
     24 H1          -0.5410     0.0020    -0.9380 ha         1 X65       0.145000
     25 H2           1.9180    -0.0020    -0.9400 ha         1 X65       0.154000
     26 H4           1.9640    -0.0020     3.3280 ha         1 X65       0.112000
     27 HN7         -2.5820     0.1190     2.0670 hn         1 X65       0.347800
     28 H112        -0.6780    -0.1470     5.6210 hn         1 X65       0.252467
     29 H212         0.5850     0.6570     4.9650 hn         1 X65       0.252467
     30 H114        -2.5580     0.7170    -0.7030 h1         1 X65       0.044700
     31 H214        -2.5590    -1.0440    -0.5390 h1         1 X65       0.044700
     32 H16         -6.8710     2.0870     0.5050 ha         1 X65       0.135500
     33 H17         -4.4480     2.0450     0.0530 ha         1 X65       0.134500
     34 H19         -4.4470    -2.2070     0.4510 ha         1 X65       0.134500
     35 H20         -6.8700    -2.1660     0.9070 ha         1 X65       0.135500
     36 H124        -9.2620    -1.0010    -0.8400 hn         1 X65       0.317133
     37 H224        -9.2300     0.6280    -0.9700 hn         1 X65       0.317133
     38 H123         0.4850    -0.9800     4.8500 hn         1 X65       0.252467
     39 H243       -10.5140    -0.1270    -0.2570 hn         1 X65       0.317133
     40 S21         -8.7490    -0.0070     1.0570 sy         1 X65       0.946200
@<TRIPOS>BOND
     1     1     2 ar  
     2     1     6 ar  
     3     1    24 1   
     4     2     3 ar  
     5     2    25 1   
     6     3     4 ar  
     7     3     8 1   
     8     4     5 ar  
     9     4    26 1   
    10     5     6 ar  
    11     5    11 1   
    12     6     7 1   
    13     7    14 1   
    14     7    27 1   
    15     8     9 1   
    16     8    10 1   
    17    11    12 1   
    18    11    13 2   
    19    12    28 1   
    20    12    29 1   
    21    12    38 1   
    22    14    18 1   
    23    14    30 1   
    24    14    31 1   
    25    15    16 ar  
    26    15    20 ar  
    27    15    40 1   
    28    16    17 ar  
    29    16    32 1   
    30    17    18 ar  
    31    17    33 1   
    32    18    19 ar  
    33    19    20 ar  
    34    19    34 1   
    35    20    35 1   
    36    21    40 2   
    37    22    40 2   
    38    23    36 1   
    39    23    37 1   
    40    23    39 1   
    41    23    40 1   
@<TRIPOS>SUBSTRUCTURE
     1 X65         1 TEMP              0 ****  ****    0 ROOT
