@<TRIPOS>MOLECULE
X66
   25    26     1     0     0
SMALL
bcc


@<TRIPOS>ATOM
      1 N1           0.0000     0.0000     0.0000 nb         1 X66      -0.694000
      2 C2           1.3290     0.0000     0.0000 ca         1 X66       0.752400
      3 N3           2.0190     0.0020    -1.1960 nv         1 X66      -0.636000
      4 N4           1.9940     0.0000     1.1510 nb         1 X66      -0.665500
      5 C5           1.3290    -0.0020     2.3030 cp         1 X66       0.717500
      6 C6           2.0680    -0.0030     3.5860 cp         1 X66      -0.199500
      7 C7           1.3720    -0.0100     4.7980 ca         1 X66       0.185100
      8 O8           0.0140    -0.0110     4.8030 oh         1 X66      -0.435100
      9 C9           2.0700    -0.0150     5.9960 ca         1 X66      -0.207000
     10 C10          3.4510    -0.0140     5.9920 ca         1 X66      -0.068000
     11 C11          4.1490    -0.0060     4.7910 ca         1 X66       0.065100
     12 O12          5.5090    -0.0040     4.7970 oh         1 X66      -0.495100
     13 C13          3.4630    -0.0010     3.5900 ca         1 X66      -0.055000
     14 N14         -0.0020    -0.0030     2.3020 nb         1 X66      -0.665500
     15 C15         -0.6650    -0.0020     1.1500 ca         1 X66       0.752400
     16 N16         -2.0450    -0.0020     1.1490 nv         1 X66      -0.636000
     17 H1N3         2.2560     0.8700    -1.6350 hn         1 X66       0.283050
     18 H2N3         2.2560    -0.8640    -1.6380 hn         1 X66       0.283050
     19 HO8         -0.2980     0.1640     5.6760 ho         1 X66       0.392000
     20 H9           1.5320    -0.0210     6.9360 ha         1 X66       0.113000
     21 H10          3.9930    -0.0180     6.9300 ha         1 X66       0.111000
     22 HO12         5.8250    -0.8910     4.7460 ho         1 X66       0.399000
     23 H13          4.0080     0.0060     2.6540 ha         1 X66       0.136000
     24 H116        -2.5460     0.8650     1.1480 hn         1 X66       0.283050
     25 H216        -2.5460    -0.8690     1.1460 hn         1 X66       0.283050
@<TRIPOS>BOND
     1     1     2 ar  
     2     1    15 ar  
     3     2     3 1   
     4     2     4 ar  
     5     3    17 1   
     6     3    18 1   
     7     4     5 ar  
     8     5     6 1   
     9     5    14 ar  
    10     6     7 ar  
    11     6    13 ar  
    12     7     8 1   
    13     7     9 ar  
    14     8    19 1   
    15     9    10 ar  
    16     9    20 1   
    17    10    11 ar  
    18    10    21 1   
    19    11    12 1   
    20    11    13 ar  
    21    12    22 1   
    22    13    23 1   
    23    14    15 ar  
    24    15    16 1   
    25    16    24 1   
    26    16    25 1   
@<TRIPOS>SUBSTRUCTURE
     1 X66         1 TEMP              0 ****  ****    0 ROOT
