@<TRIPOS>MOLECULE
molecule
   24    25     1     0     0
SMALL
bcc


@<TRIPOS>ATOM
      1 C1           0.0000     0.0000     0.0000 ca         1 X67       0.989400
      2 N2          -0.6910     0.0060    -1.1950 nv         1 X67      -1.021000
      3 N3           1.3290     0.0000     0.0000 nb         1 X67      -0.831000
      4 C4           1.9950     0.0000     1.1520 cp         1 X67       0.821500
      5 C5           3.4750     0.0000     1.1520 cp         1 X67      -0.154500
      6 C6           4.1770    -0.0000    -0.0540 ca         1 X67      -0.088000
      7 C7           5.5570    -0.0000    -0.0460 ca         1 X67       0.086900
      8 F8           6.2360     0.0010    -1.2160 f          1 X67      -0.139900
      9 C9           6.2490     0.0010     1.1550 ca         1 X67      -0.113000
     10 C10          5.5640     0.0000     2.3540 ca         1 X67      -0.202000
     11 C11          4.1780     0.0050     2.3620 ca         1 X67       0.160100
     12 O12          3.5040     0.0050     3.5410 oh         1 X67      -0.463100
     13 N13          1.3290     0.0000     2.3040 nb         1 X67      -0.831000
     14 C14         -0.0010     0.0000     2.3030 ca         1 X67       0.989400
     15 N15         -0.6920     0.0000     3.4980 nv         1 X67      -1.021000
     16 N16         -0.6640     0.0010     1.1510 nb         1 X67      -0.866000
     17 H1N2        -0.9520    -0.8590    -1.6260 hn         1 X67       0.450800
     18 H2N2        -0.9430     0.8750    -1.6230 hn         1 X67       0.450800
     19 H6           3.6400    -0.0660    -0.9930 ha         1 X67       0.177000
     20 H9           7.3330    -0.0010     1.1530 ha         1 X67       0.147000
     21 H10          6.1110     0.0030     3.2890 ha         1 X67       0.142000
     22 HO12         3.9800     0.5140     4.1750 ho         1 X67       0.414000
     23 H115        -0.1920    -0.0040     4.3650 hn         1 X67       0.450800
     24 H215        -1.6920     0.0030     3.4970 hn         1 X67       0.450800
@<TRIPOS>BOND
     1    10     9 ar
     2    10    11 ar
     3     9     7 ar
     4    12    11 1
     5    11     5 ar
     6     7     8 1
     7     7     6 ar
     8     5     6 ar
     9     5     4 1
    10     3     4 ar
    11     3     1 ar
    12     4    13 ar
    13     2     1 1
    14     1    16 ar
    15    13    14 ar
    16    16    14 ar
    17    14    15 1
    18     2    17 1
    19     2    18 1
    20     6    19 1
    21     9    20 1
    22    10    21 1
    23    12    22 1
    24    15    23 1
    25    15    24 1
@<TRIPOS>SUBSTRUCTURE
     1 X67         1 TEMP              0 ****  ****    0 ROOT
