@<TRIPOS>MOLECULE
X67
   24    25     1     0     0
SMALL
bcc


@<TRIPOS>ATOM
      1 C1           0.0000     0.0000     0.0000 ca         1 X67       0.765900
      2 N2          -0.6910     0.0060    -1.1950 nv         1 X67      -0.559000
      3 N3           1.3290     0.0000     0.0000 nb         1 X67      -0.728000
      4 C4           1.9950     0.0000     1.1520 cp         1 X67       0.752500
      5 C5           3.4750     0.0000     1.1520 cp         1 X67      -0.181500
      6 C6           4.1770    -0.0000    -0.0540 ca         1 X67      -0.054000
      7 C7           5.5570    -0.0000    -0.0460 ca         1 X67       0.053900
      8 F8           6.2360     0.0010    -1.2160 f          1 X67      -0.128900
      9 C9           6.2490     0.0010     1.1550 ca         1 X67      -0.074000
     10 C10          5.5640     0.0000     2.3540 ca         1 X67      -0.187000
     11 C11          4.1780     0.0050     2.3620 ca         1 X67       0.179100
     12 O12          3.5040     0.0050     3.5410 oh         1 X67      -0.445100
     13 N13          1.3290     0.0000     2.3040 nb         1 X67      -0.728000
     14 C14         -0.0010     0.0000     2.3030 ca         1 X67       0.765900
     15 N15         -0.6920     0.0000     3.4980 nv         1 X67      -0.559000
     16 N16         -0.6640     0.0010     1.1510 nb         1 X67      -0.760000
     17 H1N2        -0.9520    -0.8590    -1.6260 hn         1 X67       0.279800
     18 H2N2        -0.9430     0.8750    -1.6230 hn         1 X67       0.279800
     19 H6           3.6400    -0.0660    -0.9930 ha         1 X67       0.143000
     20 H9           7.3330    -0.0010     1.1530 ha         1 X67       0.116000
     21 H10          6.1110     0.0030     3.2890 ha         1 X67       0.116000
     22 HO12         3.9800     0.5140     4.1750 ho         1 X67       0.393000
     23 H115        -0.1920    -0.0040     4.3650 hn         1 X67       0.279800
     24 H215        -1.6920     0.0030     3.4970 hn         1 X67       0.279800
@<TRIPOS>BOND
     1     1     2 1   
     2     1     3 ar  
     3     1    16 ar  
     4     2    17 1   
     5     2    18 1   
     6     3     4 ar  
     7     4     5 1   
     8     4    13 ar  
     9     5     6 ar  
    10     5    11 ar  
    11     6     7 ar  
    12     6    19 1   
    13     7     8 1   
    14     7     9 ar  
    15     9    10 ar  
    16     9    20 1   
    17    10    11 ar  
    18    10    21 1   
    19    11    12 1   
    20    12    22 1   
    21    13    14 ar  
    22    14    15 1   
    23    14    16 ar  
    24    15    23 1   
    25    15    24 1   
@<TRIPOS>SUBSTRUCTURE
     1 X67         1 TEMP              0 ****  ****    0 ROOT
