@<TRIPOS>MOLECULE
molecule
   37    38     1     0     0
SMALL
bcc


@<TRIPOS>ATOM
      1 N01          0.0000     0.0000     0.0000 nu         1 X69      -0.759600
      2 N02          3.1200     0.1180     2.7900 nz         1 X69      -0.673400
      3 N03         -4.2090    -1.1330     0.6710 nb         1 X69      -0.677000
      4 N04          5.3420     0.0070    -1.8430 no         1 X69       0.300200
      5 C05          3.6950     0.0000     0.0000 ca         1 X69       0.019000
      6 C06          2.3770     0.0000     0.4660 ca         1 X69      -0.343600
      7 C07          1.3130     0.0000    -0.4530 ca         1 X69       0.337600
      8 C08          1.5800     0.0000    -1.8130 ca         1 X69      -0.327000
      9 C09          2.8920    -0.0000    -2.2620 ca         1 X69       0.289100
     10 C10          3.9460    -0.0010    -1.3520 ca         1 X69      -0.217200
     11 C12         -1.1050     0.1250    -0.9550 c3         1 X69       0.272100
     12 C13         -2.4150     0.0980    -0.2120 ca         1 X69      -0.272600
     13 C14         -3.0620    -1.1020     0.0220 ca         1 X69       0.446200
     14 C15         -4.7830    -0.0340     1.1210 ca         1 X69       0.449200
     15 C16         -4.1950     1.2020     0.9230 ca         1 X69      -0.250300
     16 C17         -2.9880     1.2750     0.2450 ca         1 X69      -0.071000
     17 C18          2.0230    -0.0000    -4.4730 c3         1 X69       0.114700
     18 O19          0.9610    -0.1090     2.3160 o          1 X69      -0.479100
     19 O20          6.2670     0.0120    -1.0490 o          1 X69      -0.177000
     20 O21          5.5680     0.0070    -3.0400 o          1 X69      -0.177000
     21 O22          3.1500     0.0000    -3.5950 os         1 X69      -0.256900
     22 HN01        -0.1920    -0.1130     0.9760 hn         1 X69       0.483800
     23 H102         3.7350    -0.6660     2.6970 hn         1 X69       0.478133
     24 H202         2.7820     0.1670     3.7310 hn         1 X69       0.478133
     25 H05          4.5180    -0.0330     0.7030 ha         1 X69       0.145000
     26 H08          0.7640    -0.0330    -2.5260 ha         1 X69       0.180000
     27 H112        -1.0700    -0.6990    -1.6570 h1         1 X69       0.062700
     28 H212        -1.0130     1.0610    -1.4920 h1         1 X69       0.062700
     29 H14         -2.6220    -2.0260    -0.3320 h4         1 X69       0.027100
     30 H15         -5.7260    -0.1000     1.6500 h4         1 X69       0.041100
     31 H16         -4.6710     2.1010     1.2940 ha         1 X69       0.154000
     32 H17         -2.5040     2.2290     0.0750 ha         1 X69       0.141000
     33 H118         1.4280    -0.8880    -4.2960 h1         1 X69       0.064033
     34 H218         2.3650     0.0070    -5.5000 h1         1 X69       0.064033
     35 H318         1.4200     0.8810    -4.2880 h1         1 X69       0.064033
     36 H023         3.6250     0.9620     2.6040 hn         1 X69       0.478133
     37 C11          2.1050    -0.0020     1.9130 c          1 X69       0.527700
@<TRIPOS>BOND
     1     1     7 1
     2     1    11 1
     3     1    22 1
     4     2    37 1
     5     2    23 1
     6     2    24 1
     7     3    14 ar
     8     4    19 1
     9     5    10 ar
    10     5    25 1
    11     6     5 ar
    12     6     7 ar
    13     7     8 ar
    14     8     9 ar
    15     8    26 1
    16     9    21 1
    17    10     4 1
    18    10     9 ar
    19    37     6 1
    20    11    12 1
    21    11    27 1
    22    11    28 1
    23    12    16 ar
    24    13    12 ar
    25    13     3 ar
    26    13    29 1
    27    14    15 ar
    28    14    30 1
    29    15    31 1
    30    16    15 ar
    31    16    32 1
    32    17    33 1
    33    17    34 1
    34    17    35 1
    35    18    37 2
    36    20     4 1
    37    21    17 1
    38    36     2 1
@<TRIPOS>SUBSTRUCTURE
     1 X69         1 TEMP              0 ****  ****    0 ROOT
