@<TRIPOS>MOLECULE
X6A
   34    35     1     0     0
SMALL
bcc


@<TRIPOS>ATOM
      1 N01          0.0000     0.0000     0.0000 nu         1 X6A      -0.330600
      2 N02          3.1190     0.1210     2.7930 nz         1 X6A       0.207600
      3 N03         -4.1460     1.2110     0.8900 nb         1 X6A      -0.690500
      4 N04         -4.2190    -1.0900     0.6780 nb         1 X6A      -0.690500
      5 C07          3.6930     0.0000     0.0000 ca         1 X6A       0.073000
      6 C08          2.3760     0.0000     0.4670 ca         1 X6A      -0.353600
      7 C09          1.3140     0.0000    -0.4510 ca         1 X6A       0.180600
      8 C10          1.5830    -0.0020    -1.8130 ca         1 X6A      -0.208000
      9 C11          2.8910    -0.0010    -2.2590 ca         1 X6A       0.082400
     10 C12          3.9420    -0.0010    -1.3540 ca         1 X6A      -0.483200
     11 C14         -1.1030     0.1230    -0.9560 c3         1 X6A       0.236100
     12 C15         -2.4140     0.0970    -0.2150 ca         1 X6A      -0.501900
     13 C16         -2.9930     1.2690     0.2430 ca         1 X6A       0.527700
     14 C17         -4.7450     0.0480     1.1020 ca         1 X6A       0.722900
     15 C18         -3.0690    -1.1030     0.0240 ca         1 X6A       0.527700
     16 O19          0.9610    -0.1080     2.3190 o          1 X6A      -0.502100
     17 O20          6.2620     0.0110    -1.0540 o          1 X6A      -0.431000
     18 O21          5.5620     0.0040    -3.0440 o          1 X6A      -0.431000
     19 Cl22         3.2210    -0.0030    -3.9640 cl         1 X6A       0.148600
     20 HN01        -0.1940    -0.1080     0.9760 hn         1 X6A       0.346800
     21 H102         2.7530     0.1650     3.7230 hn         1 X6A       0.246133
     22 H202         3.6270     0.9600     2.5940 hn         1 X6A       0.246133
     23 H106        -6.4130    -0.8470     1.9490 hn         1 X6A       0.283300
     24 H206        -6.3580     0.8780     2.1080 hn         1 X6A       0.283300
     25 H07          4.5170    -0.0000     0.7030 ha         1 X6A       0.105000
     26 H10          0.7680    -0.0020    -2.5270 ha         1 X6A       0.156000
     27 H114        -1.0670    -0.7020    -1.6560 h1         1 X6A       0.035200
     28 H214        -1.0110     1.0580    -1.4940 h1         1 X6A       0.035200
     29 H16         -2.5080     2.2230     0.0730 h4         1 X6A      -0.017900
     30 H18         -2.6440    -2.0380    -0.3200 h4         1 X6A      -0.017900
     31 H023         3.7410    -0.6590     2.7150 hn         1 X6A       0.246133
     32 C13          2.1030     0.0000     1.9160 c          1 X6A       0.372700
     33 N05          5.3370     0.0050    -1.8460 no         1 X6A       1.048200
     34 N06         -5.9500     0.0240     1.7820 nv         1 X6A      -0.453500
@<TRIPOS>BOND
     1     1     7 1   
     2     1    11 1   
     3     1    20 1   
     4     2    21 1   
     5     2    22 1   
     6     2    31 1   
     7     2    32 1   
     8     3    13 ar  
     9     3    14 ar  
    10     4    14 ar  
    11     4    15 ar  
    12     5     6 ar  
    13     5    10 ar  
    14     5    25 1   
    15     6     7 ar  
    16     6    32 1   
    17     7     8 ar  
    18     8     9 ar  
    19     8    26 1   
    20     9    10 ar  
    21     9    19 1   
    22    10    33 1   
    23    11    12 1   
    24    11    27 1   
    25    11    28 1   
    26    12    13 ar  
    27    12    15 ar  
    28    13    29 1   
    29    14    34 1   
    30    15    30 1   
    31    16    32 2   
    32    17    33 1   
    33    18    33 1   
    34    23    34 1   
    35    24    34 1   
@<TRIPOS>SUBSTRUCTURE
     1 X6A         1 TEMP              0 ****  ****    0 ROOT
