@<TRIPOS>MOLECULE
molecule
   34    35     1     0     0
SMALL
bcc


@<TRIPOS>ATOM
      1 N01          0.0000     0.0000     0.0000 nu         1 X6A      -0.750600
      2 N02          3.1190     0.1210     2.7930 nz         1 X6A      -0.675400
      3 N03         -4.1460     1.2110     0.8900 nb         1 X6A      -0.790500
      4 N04         -4.2190    -1.0900     0.6780 nb         1 X6A      -0.790500
      5 C07          3.6930     0.0000     0.0000 ca         1 X6A       0.000000
      6 C08          2.3760     0.0000     0.4670 ca         1 X6A      -0.322600
      7 C09          1.3140     0.0000    -0.4510 ca         1 X6A       0.312600
      8 C10          1.5830    -0.0020    -1.8130 ca         1 X6A      -0.210000
      9 C11          2.8910    -0.0010    -2.2590 ca         1 X6A       0.154400
     10 C12          3.9420    -0.0010    -1.3540 ca         1 X6A      -0.199200
     11 C14         -1.1030     0.1230    -0.9560 c3         1 X6A       0.283100
     12 C15         -2.4140     0.0970    -0.2150 ca         1 X6A      -0.480900
     13 C16         -2.9930     1.2690     0.2430 ca         1 X6A       0.532200
     14 C17         -4.7450     0.0480     1.1020 ca         1 X6A       0.965900
     15 C18         -3.0690    -1.1030     0.0240 ca         1 X6A       0.532200
     16 O19          0.9610    -0.1080     2.3190 o          1 X6A      -0.470100
     17 O20          6.2620     0.0110    -1.0540 o          1 X6A      -0.175500
     18 O21          5.5620     0.0040    -3.0440 o          1 X6A      -0.175500
     19 Cl22         3.2210    -0.0030    -3.9640 cl         1 X6A       0.026600
     20 HN01        -0.1940    -0.1080     0.9760 hn         1 X6A       0.482800
     21 H102         2.7530     0.1650     3.7230 hn         1 X6A       0.480467
     22 H202         3.6270     0.9600     2.5940 hn         1 X6A       0.480467
     23 H106        -6.4130    -0.8470     1.9490 hn         1 X6A       0.462800
     24 H206        -6.3580     0.8780     2.1080 hn         1 X6A       0.462800
     25 H07          4.5170    -0.0000     0.7030 ha         1 X6A       0.145000
     26 H10          0.7680    -0.0020    -2.5270 ha         1 X6A       0.188000
     27 H114        -1.0670    -0.7020    -1.6560 h1         1 X6A       0.065200
     28 H214        -1.0110     1.0580    -1.4940 h1         1 X6A       0.065200
     29 H16         -2.5080     2.2230     0.0730 h4         1 X6A       0.032100
     30 H18         -2.6440    -2.0380    -0.3200 h4         1 X6A       0.032100
     31 H023         3.7410    -0.6590     2.7150 hn         1 X6A       0.480467
     32 C13          2.1030     0.0000     1.9160 c          1 X6A       0.527700
     33 N05          5.3370     0.0050    -1.8460 no         1 X6A       0.296200
     34 N06         -5.9500     0.0240     1.7820 nv         1 X6A      -0.965500
@<TRIPOS>BOND
     1     1     7 1
     2     1    11 1
     3     1    20 1
     4     2    32 1
     5     2    21 1
     6     2    22 1
     7     4    14 ar
     8    33    17 1
     9    34    23 1
    10    34    24 1
    11     5    10 ar
    12     5    25 1
    13     6     5 ar
    14     6     7 ar
    15     7     8 ar
    16     8     9 ar
    17     8    26 1
    18     9    19 1
    19    10    33 1
    20    10     9 ar
    21    32     6 1
    22    11    12 1
    23    11    27 1
    24    11    28 1
    25    12    13 ar
    26    13     3 ar
    27    13    29 1
    28    14     3 ar
    29    14    34 1
    30    15    12 ar
    31    15     4 ar
    32    15    30 1
    33    16    32 2
    34    18    33 1
    35    31     2 1
@<TRIPOS>SUBSTRUCTURE
     1 X6A         1 TEMP              0 ****  ****    0 ROOT
