@<TRIPOS>MOLECULE
molecule
   42    44     1     0     0
SMALL
bcc


@<TRIPOS>ATOM
      1 N01          0.0000     0.0000     0.0000 nc         1 X6B      -0.813000
      2 N02         -1.9650    -0.0010     1.3330 nu         1 X6B      -0.739300
      3 N03          3.6490     0.0000     2.8520 ns         1 X6B      -0.472100
      4 N04          2.0720     0.0010    -1.1610 nv         1 X6B      -0.965500
      5 N05         -6.4920     1.8940    -3.0950 nz         1 X6B      -0.805500
      6 C06          1.8670     0.0000     1.2630 cd         1 X6B      -0.349000
      7 C07          1.3130     0.0000     0.0000 cc         1 X6B       0.767200
      8 C08         -0.5970    -0.0010     1.1570 cd         1 X6B       0.719300
      9 C09         -2.8110     0.1290     0.2280 ca         1 X6B       0.265600
     10 C10          3.2430     0.0000     1.5660 c          1 X6B       0.738700
     11 C11         -4.0570    -0.4850     0.2300 ca         1 X6B      -0.162000
     12 C12         -4.8910    -0.3550    -0.8630 ca         1 X6B      -0.006000
     13 C13         -4.4880     0.3870    -1.9580 ca         1 X6B      -0.373500
     14 C14         -3.2480     1.0010    -1.9630 ca         1 X6B      -0.006000
     15 C15         -2.4110     0.8790    -0.8710 ca         1 X6B      -0.162000
     16 C16          5.0100    -0.1070     3.1550 ca         1 X6B       0.077600
     17 C17          5.5300     0.5490     4.2640 ca         1 X6B      -0.176000
     18 C18          6.8740     0.4410     4.5620 ca         1 X6B      -0.084000
     19 C19          7.7040    -0.3170     3.7580 ca         1 X6B      -0.178000
     20 C20          7.1910    -0.9730     2.6510 ca         1 X6B       0.153900
     21 C21          5.8430    -0.8740     2.3520 ca         1 X6B      -0.170000
     22 O22          4.0660     0.0010     0.6680 o          1 X6B      -0.618100
     23 O23         -6.4350    -0.5640    -3.3160 o          1 X6B      -0.521300
     24 O24         -4.7220     0.8510    -4.4620 o          1 X6B      -0.521300
     25 F25          8.0040    -1.7130     1.8670 f          1 X6B      -0.133900
     26 S26          0.5450    -0.0010     2.4270 ss         1 X6B      -0.161300
     27 S27         -5.5550     0.5530    -3.3510 sy         1 X6B       1.223200
     28 HN02        -2.3500    -0.0570     2.2550 hn         1 X6B       0.480800
     29 HN03         2.9740     0.0340     3.5900 hn         1 X6B       0.322500
     30 HN04         3.0710     0.0350    -1.1070 hn         1 X6B       0.466300
     31 HN0A         1.6200    -0.0090    -2.0540 hn         1 X6B       0.466300
     32 HN05        -5.9040     2.6990    -3.0050 hn         1 X6B       0.490467
     33 HN0B        -7.1140     2.0190    -3.8680 hn         1 X6B       0.490467
     34 H11         -4.3730    -1.0670     1.0870 ha         1 X6B       0.178000
     35 H12         -5.8620    -0.8340    -0.8630 ha         1 X6B       0.156500
     36 H14         -2.9360     1.5840    -2.8210 ha         1 X6B       0.156500
     37 H15         -1.4400     1.3600    -0.8760 ha         1 X6B       0.178000
     38 H17          4.8810     1.1440     4.8950 ha         1 X6B       0.132000
     39 H18          7.2790     0.9530     5.4270 ha         1 X6B       0.142000
     40 H19          8.7590    -0.3970     3.9930 ha         1 X6B       0.150000
     41 H21          5.4410    -1.3860     1.4870 ha         1 X6B       0.171000
     42 H053        -7.0210     1.7760    -2.2530 hn         1 X6B       0.490467
@<TRIPOS>BOND
     1     7     1 1
     2     1     8 2
     3     8     2 1
     4     2     9 1
     5     2    28 1
     6    10     3 1
     7     3    16 1
     8     3    29 1
     9     4     7 1
    10     4    30 1
    11     4    31 1
    12    27     5 1
    13     5    32 1
    14     5    33 1
    15     7     6 2
    16    10     6 1
    17     6    26 1
    18     8    26 1
    19     9    11 ar
    20     9    15 ar
    21    22    10 2
    22    11    12 ar
    23    11    34 1
    24    12    13 ar
    25    12    35 1
    26    14    13 ar
    27    13    27 1
    28    15    14 ar
    29    14    36 1
    30    15    37 1
    31    21    16 ar
    32    16    17 ar
    33    17    18 ar
    34    17    38 1
    35    19    18 ar
    36    18    39 1
    37    20    19 ar
    38    19    40 1
    39    25    20 1
    40    21    20 ar
    41    21    41 1
    42    23    27 2
    43    27    24 2
    44    42     5 1
@<TRIPOS>SUBSTRUCTURE
     1 X6B         1 TEMP              0 ****  ****    0 ROOT
