@<TRIPOS>MOLECULE
X6C
   44    46     1     0     0
SMALL
bcc


@<TRIPOS>ATOM
      1 CAA         1.3260   -0.8650    0.5680 c3        1 X6C     -0.171100
      2 CAQ         2.6370   -0.2430    0.1850 c         1 X6C      0.677100
      3 OAB         3.5310   -0.0060    1.0290 o         1 X6C     -0.651100
      4 N           2.8580    0.1630   -1.1350 n         1 X6C     -0.472800
      5 CD2         1.9650   -0.2250   -2.2180 c3        1 X6C      0.037000
      6 CG          2.8200   -0.4380   -3.4940 c3        1 X6C      0.136100
      7 OD1         2.8910   -1.8150   -3.8060 oh        1 X6C     -0.585800
      8 CB          4.2410    0.0180   -3.1300 c3        1 X6C     -0.096400
      9 CA          4.2130    0.3620   -1.6250 c3        1 X6C      0.038700
     10 C           4.6990    1.8060   -1.4050 c         1 X6C      0.534100
     11 O           5.0580    2.6000   -2.2600 o         1 X6C     -0.416100
     12 NAO         4.7560    2.2460    0.0330 n4        1 X6C     -0.677800
     13 CAK         5.7570    3.3260    0.3230 c3        1 X6C      0.174100
     14 CAS         7.1260    2.7730    0.5200 ca        1 X6C     -0.190300
     15 CAF         8.1070    2.9580   -0.4610 ca        1 X6C     -0.095000
     16 CAH         9.3980    2.4830   -0.2540 ca        1 X6C     -0.113500
     17 CAE         7.4460    2.1070    1.7100 ca        1 X6C     -0.095000
     18 CAG         8.7330    1.6270    1.9180 ca        1 X6C     -0.113500
     19 CAT         9.7240    1.8120    0.9370 ca        1 X6C     -0.052500
     20 CAU        11.0510    1.3160    1.1640 cc        1 X6C      0.155900
     21 OAP        12.0140    1.5010    0.1520 os        1 X6C     -0.380800
     22 CAI        13.1840    0.9280    0.6570 cc        1 X6C      0.519300
     23 NAN        13.0200    0.4140    1.8750 nd        1 X6C     -0.660000
     24 CAJ        11.6840    0.6480    2.2140 cd        1 X6C      0.293900
     25 HAA1        1.2960   -1.9220    0.2010 hc        1 X6C      0.091367
     26 HAA2        0.4640   -0.3020    0.1350 hc        1 X6C      0.091367
     27 HAA3        1.2410   -0.8700    1.6840 hc        1 X6C      0.091367
     28 HD21        1.2190    0.6020   -2.3750 h1        1 X6C      0.077700
     29 HD22        1.4130   -1.1740   -1.9690 h1        1 X6C      0.077700
     30 HA          4.9410   -0.3000   -1.0590 h1        1 X6C      0.112700
     31 HG          2.4040    0.1530   -4.3510 h1        1 X6C      0.076700
     32 HD1         2.1430   -2.0250   -4.3800 ho        1 X6C      0.425000
     33 HB1C        4.9700   -0.8140   -3.3120 hc        1 X6C      0.103700
     34 HB2C        4.5400    0.8970   -3.7530 hc        1 X6C      0.103700
     35 HAO         3.8170    2.5680    0.2940 hn        1 X6C      0.475300
     36 HAK1        5.4110    3.8470    1.2630 hx        1 X6C      0.112200
     37 HAK2        5.7370    4.0630   -0.5320 hx        1 X6C      0.112200
     38 HAF         7.8640    3.4890   -1.3950 ha        1 X6C      0.144000
     39 HAE         6.6840    1.9730    2.4940 ha        1 X6C      0.144000
     40 HAH        10.1760    2.6360   -1.0210 ha        1 X6C      0.164500
     41 HAG         8.9830    1.1070    2.8570 ha        1 X6C      0.164500
     42 HAJ        11.2830    0.3250    3.1770 h4        1 X6C      0.061100
     43 HAI        14.0620    0.9730    0.0070 h5        1 X6C      0.103100
     44 HAO2        4.9700    1.4160    0.6190 hn        1 X6C      0.475300
@<TRIPOS>BOND
     1    1    2 1   
     2    1   25 1   
     3    1   26 1   
     4    1   27 1   
     5    2    3 2   
     6    2    4 1   
     7    4    5 1   
     8    4    9 1   
     9    5    6 1   
    10    5   28 1   
    11    5   29 1   
    12    6    7 1   
    13    6    8 1   
    14    6   31 1   
    15    7   32 1   
    16    8    9 1   
    17    8   33 1   
    18    8   34 1   
    19    9   10 1   
    20    9   30 1   
    21   10   11 2   
    22   10   12 1   
    23   12   13 1   
    24   12   35 1   
    25   12   44 1   
    26   13   14 1   
    27   13   36 1   
    28   13   37 1   
    29   14   15 ar  
    30   14   17 ar  
    31   15   16 ar  
    32   15   38 1   
    33   16   19 ar  
    34   16   40 1   
    35   17   18 ar  
    36   17   39 1   
    37   18   19 ar  
    38   18   41 1   
    39   19   20 1   
    40   20   21 1   
    41   20   24 2   
    42   21   22 1   
    43   22   23 2   
    44   22   43 1   
    45   23   24 1   
    46   24   42 1   
@<TRIPOS>SUBSTRUCTURE
     1 X6C         1 TEMP              0 ****  ****    0 ROOT
