@<TRIPOS>MOLECULE
molecule
   67    72     1     0     0
SMALL
bcc


@<TRIPOS>ATOM
      1 CAN          0.0000     0.0000     0.0000 c3         1 X6D       0.120800
      2 CAL          1.5310     0.0000     0.0000 c3         1 X6D       0.139900
      3 OAY          2.0030     0.0000     1.3500 os         1 X6D      -0.424600
      4 CAM          1.5500     1.1190     2.1170 c3         1 X6D       0.139900
      5 CAO          0.0200     1.1300     2.1400 c3         1 X6D       0.120800
      6 NBI         -0.4850     1.1620     0.7580 n3         1 X6D      -0.723600
      7 CAT         -1.9510     1.2310     0.7350 c3         1 X6D       0.205100
      8 CBB         -2.4010     2.5520     1.3040 ca         1 X6D      -0.062300
      9 CAG         -2.5660     3.6420     0.4680 ca         1 X6D      -0.118500
     10 CAI         -2.9780     4.8540     0.9820 ca         1 X6D      -0.098500
     11 CAH         -2.6530     2.6690     2.6600 ca         1 X6D      -0.118500
     12 CAJ         -3.0650     3.8760     3.1870 ca         1 X6D      -0.098500
     13 CBD         -3.2280     4.9790     2.3490 ca         1 X6D      -0.112900
     14 CBE         -3.6700     6.2760     2.9080 cc         1 X6D       0.494400
     15 NAX         -3.9430     6.5140     4.2300 na         1 X6D      -0.357000
     16 NAW         -3.8540     7.3720     2.2150 nd         1 X6D      -0.605100
     17 CBH         -4.2570     8.3660     3.0410 ca         1 X6D      -0.056900
     18 CBG         -4.3210     7.8350     4.3400 ca         1 X6D       0.431800
     19 NAV         -4.6890     8.5980     5.3590 nb         1 X6D      -0.699000
     20 CAK         -5.0090     9.8670     5.1970 ca         1 X6D       0.472200
     21 CBC         -4.9750    10.4660     3.9500 ca         1 X6D      -0.147200
     22 Br          -5.4410    12.2880     3.7570 br         1 X6D      -0.059100
     23 CBF         -4.5890     9.7190     2.8430 ca         1 X6D       0.198600
     24 NBK         -4.5390    10.2900     1.5750 nh         1 X6D      -0.606000
     25 CAR         -5.4800     9.6290     0.6610 c3         1 X6D       0.121300
     26 CAP         -5.4500    10.3370    -0.6960 c3         1 X6D       0.160300
     27 CAS         -3.1720    10.2540     1.0370 c3         1 X6D       0.121300
     28 CAQ         -3.1430    10.9620    -0.3200 c3         1 X6D       0.160300
     29 NBJ         -4.0840    10.3010    -1.2350 n3         1 X6D      -0.715600
     30 CAU         -3.6650     8.9210    -1.5150 c3         1 X6D       0.190100
     31 CBA         -2.3710     8.9370    -2.2880 ca         1 X6D      -0.076300
     32 CAE         -1.1640     8.9210    -1.6140 ca         1 X6D      -0.111000
     33 CAC          0.0230     8.9350    -2.3220 ca         1 X6D      -0.123000
     34 CAZ          0.0030     8.9640    -3.7040 ca         1 X6D       0.028400
     35 Cl           1.4930     8.9810    -4.5950 cl         1 X6D      -0.113400
     36 CAD         -1.2050     8.9790    -4.3790 ca         1 X6D      -0.123000
     37 CAF         -2.3920     8.9610    -3.6700 ca         1 X6D      -0.111000
     38 HAN1        -0.3610    -0.9100     0.4650 h1         1 X6D       0.044200
     39 HAN2        -0.3610     0.0590    -1.0200 h1         1 X6D       0.044200
     40 HAL1         1.8920    -0.8860    -0.5080 h1         1 X6D       0.055200
     41 HAL2         1.8920     0.8860    -0.5080 h1         1 X6D       0.055200
     42 HAM1         1.9250     1.0380     3.1300 h1         1 X6D       0.055200
     43 HAM2         1.9110     2.0360     1.6650 h1         1 X6D       0.055200
     44 HAO1        -0.3390     0.2360     2.6340 h1         1 X6D       0.044200
     45 HAO2        -0.3260     2.0080     2.6710 h1         1 X6D       0.044200
     46 HAT1        -2.3600     0.4240     1.3300 h1         1 X6D       0.044200
     47 HAT2        -2.3010     1.1400    -0.2860 h1         1 X6D       0.044200
     48 HAG         -2.3720     3.5430    -0.5930 ha         1 X6D       0.140500
     49 HAH         -2.5250     1.8110     3.3090 ha         1 X6D       0.140500
     50 HAI         -3.1050     5.7070     0.3270 ha         1 X6D       0.141000
     51 HAJ         -3.2600     3.9660     4.2490 ha         1 X6D       0.141000
     52 HAX         -3.7600     5.8890     4.9900 hn         1 X6D       0.315700
     53 HAK         -5.3050    10.4530     6.0590 h4         1 X6D       0.043100
     54 HAR1        -6.4810     9.6820     1.0730 h1         1 X6D       0.053950
     55 HAR2        -5.1910     8.5930     0.5330 h1         1 X6D       0.053950
     56 HAS1        -2.5020    10.7600     1.7210 h1         1 X6D       0.053950
     57 HAS2        -2.8600     9.2240     0.9120 h1         1 X6D       0.053950
     58 HAP1        -6.1210     9.8320    -1.3800 h1         1 X6D       0.066700
     59 HAP2        -5.7610    11.3670    -0.5710 h1         1 X6D       0.066700
     60 HAQ1        -2.1430    10.9090    -0.7330 h1         1 X6D       0.066700
     61 HAQ2        -3.4330    11.9980    -0.1930 h1         1 X6D       0.066700
     62 HAU1        -4.4290     8.4240    -2.1010 h1         1 X6D       0.050200
     63 HAU2        -3.5220     8.3900    -0.5820 h1         1 X6D       0.050200
     64 HAE         -1.1480     8.8980    -0.5310 ha         1 X6D       0.139500
     65 HAF         -3.3380     8.9720    -4.1970 ha         1 X6D       0.139500
     66 HAC          0.9690     8.9230    -1.7950 ha         1 X6D       0.143500
     67 HAD         -1.2210     9.0000    -5.4620 ha         1 X6D       0.143500
@<TRIPOS>BOND
     1     1     2 1
     2     1     6 1
     3     2     3 1
     4     3     4 1
     5     4     5 1
     6     5     6 1
     7     6     7 1
     8     7     8 1
     9     8     9 ar
    10     8    11 ar
    11     9    10 ar
    12    10    13 ar
    13    11    12 ar
    14    12    13 ar
    15    13    14 1
    16    14    15 1
    17    14    16 2
    18    15    18 1
    19    16    17 1
    20    17    18 ar
    21    17    23 ar
    22    18    19 ar
    23    19    20 ar
    24    20    21 ar
    25    21    22 1
    26    21    23 ar
    27    23    24 1
    28    24    25 1
    29    24    27 1
    30    25    26 1
    31    26    29 1
    32    27    28 1
    33    28    29 1
    34    29    30 1
    35    30    31 1
    36    31    32 ar
    37    31    37 ar
    38    32    33 ar
    39    33    34 ar
    40    34    35 1
    41    34    36 ar
    42    36    37 ar
    43     1    38 1
    44     1    39 1
    45     2    40 1
    46     2    41 1
    47     4    42 1
    48     4    43 1
    49     5    44 1
    50     5    45 1
    51     7    46 1
    52     7    47 1
    53     9    48 1
    54    11    49 1
    55    10    50 1
    56    12    51 1
    57    15    52 1
    58    20    53 1
    59    25    54 1
    60    25    55 1
    61    27    56 1
    62    27    57 1
    63    26    58 1
    64    26    59 1
    65    28    60 1
    66    28    61 1
    67    30    62 1
    68    30    63 1
    69    32    64 1
    70    37    65 1
    71    33    66 1
    72    36    67 1
@<TRIPOS>SUBSTRUCTURE
     1 X6D         1 TEMP              0 ****  ****    0 ROOT
