@<TRIPOS>MOLECULE
X6D
   67    72     1     0     0
SMALL
bcc


@<TRIPOS>ATOM
      1 CAN          0.0000     0.0000     0.0000 c3         1 X6D       0.104300
      2 CAL          1.5310     0.0000     0.0000 c3         1 X6D       0.214900
      3 OAY          2.0030     0.0000     1.3500 os         1 X6D      -0.411600
      4 CAM          1.5500     1.1190     2.1170 c3         1 X6D       0.214900
      5 CAO          0.0200     1.1300     2.1400 c3         1 X6D       0.104300
      6 NBI         -0.4850     1.1620     0.7580 n3         1 X6D      -0.532600
      7 CAT         -1.9510     1.2310     0.7350 c3         1 X6D       0.209100
      8 CBB         -2.4010     2.5520     1.3040 ca         1 X6D      -0.076300
      9 CAG         -2.5660     3.6420     0.4680 ca         1 X6D      -0.089000
     10 CAI         -2.9780     4.8540     0.9820 ca         1 X6D      -0.079500
     11 CAH         -2.6530     2.6690     2.6600 ca         1 X6D      -0.089000
     12 CAJ         -3.0650     3.8760     3.1870 ca         1 X6D      -0.079500
     13 CBD         -3.2280     4.9790     2.3490 ca         1 X6D      -0.112900
     14 CBE         -3.6700     6.2760     2.9080 cc         1 X6D       0.287400
     15 NAX         -3.9430     6.5140     4.2300 na         1 X6D       0.176000
     16 NAW         -3.8540     7.3720     2.2150 nd         1 X6D      -0.522100
     17 CBH         -4.2570     8.3660     3.0410 ca         1 X6D      -0.075900
     18 CBG         -4.3210     7.8350     4.3400 ca         1 X6D       0.196800
     19 NAV         -4.6890     8.5980     5.3590 nb         1 X6D      -0.558000
     20 CAK         -5.0090     9.8670     5.1970 ca         1 X6D       0.431200
     21 CBC         -4.9750    10.4660     3.9500 ca         1 X6D      -0.094200
     22 Br          -5.4410    12.2880     3.7570 br         1 X6D      -0.081100
     23 CBF         -4.5890     9.7190     2.8430 ca         1 X6D       0.116600
     24 NBK         -4.5390    10.2900     1.5750 nh         1 X6D      -0.384000
     25 CAR         -5.4800     9.6290     0.6610 c3         1 X6D       0.093800
     26 CAP         -5.4500    10.3370    -0.6960 c3         1 X6D       0.148800
     27 CAS         -3.1720    10.2540     1.0370 c3         1 X6D       0.093800
     28 CAQ         -3.1430    10.9620    -0.3200 c3         1 X6D       0.148800
     29 NBJ         -4.0840    10.3010    -1.2350 n3         1 X6D      -0.532600
     30 CAU         -3.6650     8.9210    -1.5150 c3         1 X6D       0.181100
     31 CBA         -2.3710     8.9370    -2.2880 ca         1 X6D      -0.083300
     32 CAE         -1.1640     8.9210    -1.6140 ca         1 X6D      -0.084500
     33 CAC          0.0230     8.9350    -2.3220 ca         1 X6D      -0.099500
     34 CAZ          0.0030     8.9640    -3.7040 ca         1 X6D      -0.034600
     35 Cl           1.4930     8.9810    -4.5950 cl         1 X6D      -0.033400
     36 CAD         -1.2050     8.9790    -4.3790 ca         1 X6D      -0.099500
     37 CAF         -2.3920     8.9610    -3.6700 ca         1 X6D      -0.084500
     38 HAN1        -0.3610    -0.9100     0.4650 h1         1 X6D       0.019450
     39 HAN2        -0.3610     0.0590    -1.0200 h1         1 X6D       0.019450
     40 HAL1         1.8920    -0.8860    -0.5080 h1         1 X6D       0.013950
     41 HAL2         1.8920     0.8860    -0.5080 h1         1 X6D       0.013950
     42 HAM1         1.9250     1.0380     3.1300 h1         1 X6D       0.013950
     43 HAM2         1.9110     2.0360     1.6650 h1         1 X6D       0.013950
     44 HAO1        -0.3390     0.2360     2.6340 h1         1 X6D       0.019450
     45 HAO2        -0.3260     2.0080     2.6710 h1         1 X6D       0.019450
     46 HAT1        -2.3600     0.4240     1.3300 h1         1 X6D       0.015200
     47 HAT2        -2.3010     1.1400    -0.2860 h1         1 X6D       0.015200
     48 HAG         -2.3720     3.5430    -0.5930 ha         1 X6D       0.113000
     49 HAH         -2.5250     1.8110     3.3090 ha         1 X6D       0.113000
     50 HAI         -3.1050     5.7070     0.3270 ha         1 X6D       0.112000
     51 HAJ         -3.2600     3.9660     4.2490 ha         1 X6D       0.112000
     52 HAX         -3.7600     5.8890     4.9900 hn         1 X6D       0.138700
     53 HAK         -5.3050    10.4530     6.0590 h4         1 X6D      -0.005900
     54 HAR1        -6.4810     9.6820     1.0730 h1         1 X6D       0.032450
     55 HAR2        -5.1910     8.5930     0.5330 h1         1 X6D       0.032450
     56 HAS1        -2.5020    10.7600     1.7210 h1         1 X6D       0.032450
     57 HAS2        -2.8600     9.2240     0.9120 h1         1 X6D       0.032450
     58 HAP1        -6.1210     9.8320    -1.3800 h1         1 X6D       0.033950
     59 HAP2        -5.7610    11.3670    -0.5710 h1         1 X6D       0.033950
     60 HAQ1        -2.1430    10.9090    -0.7330 h1         1 X6D       0.033950
     61 HAQ2        -3.4330    11.9980    -0.1930 h1         1 X6D       0.033950
     62 HAU1        -4.4290     8.4240    -2.1010 h1         1 X6D       0.026700
     63 HAU2        -3.5220     8.3900    -0.5820 h1         1 X6D       0.026700
     64 HAE         -1.1480     8.8980    -0.5310 ha         1 X6D       0.112500
     65 HAF         -3.3380     8.9720    -4.1970 ha         1 X6D       0.112500
     66 HAC          0.9690     8.9230    -1.7950 ha         1 X6D       0.114000
     67 HAD         -1.2210     9.0000    -5.4620 ha         1 X6D       0.114000
@<TRIPOS>BOND
     1     1     2 1   
     2     1     6 1   
     3     1    38 1   
     4     1    39 1   
     5     2     3 1   
     6     2    40 1   
     7     2    41 1   
     8     3     4 1   
     9     4     5 1   
    10     4    42 1   
    11     4    43 1   
    12     5     6 1   
    13     5    44 1   
    14     5    45 1   
    15     6     7 1   
    16     7     8 1   
    17     7    46 1   
    18     7    47 1   
    19     8     9 ar  
    20     8    11 ar  
    21     9    10 ar  
    22     9    48 1   
    23    10    13 ar  
    24    10    50 1   
    25    11    12 ar  
    26    11    49 1   
    27    12    13 ar  
    28    12    51 1   
    29    13    14 1   
    30    14    15 1   
    31    14    16 2   
    32    15    18 1   
    33    15    52 1   
    34    16    17 1   
    35    17    18 ar  
    36    17    23 ar  
    37    18    19 ar  
    38    19    20 ar  
    39    20    21 ar  
    40    20    53 1   
    41    21    22 1   
    42    21    23 ar  
    43    23    24 1   
    44    24    25 1   
    45    24    27 1   
    46    25    26 1   
    47    25    54 1   
    48    25    55 1   
    49    26    29 1   
    50    26    58 1   
    51    26    59 1   
    52    27    28 1   
    53    27    56 1   
    54    27    57 1   
    55    28    29 1   
    56    28    60 1   
    57    28    61 1   
    58    29    30 1   
    59    30    31 1   
    60    30    62 1   
    61    30    63 1   
    62    31    32 ar  
    63    31    37 ar  
    64    32    33 ar  
    65    32    64 1   
    66    33    34 ar  
    67    33    66 1   
    68    34    35 1   
    69    34    36 ar  
    70    36    37 ar  
    71    36    67 1   
    72    37    65 1   
@<TRIPOS>SUBSTRUCTURE
     1 X6D         1 TEMP              0 ****  ****    0 ROOT
