@<TRIPOS>MOLECULE
molecule
   51    54     1     0     0
SMALL
bcc


@<TRIPOS>ATOM
      1 C4           0.0000     0.0000     0.0000 ca         1 X6G       0.636800
      2 C5           1.3940     0.0000     0.0000 ca         1 X6G      -0.434600
      3 C6           2.0530     0.0000     1.2160 ca         1 X6G       0.507200
      4 N1           1.3480     0.0010     2.3350 nb         1 X6G      -0.801000
      5 N3          -0.6450     0.0060     1.1600 nb         1 X6G      -0.840000
      6 CAR          0.3730    -0.5560     7.0220 ca         1 X6G      -0.067300
      7 CAH         -0.3340    -0.6490     5.8390 ca         1 X6G      -0.140000
      8 CAG          1.5070     0.2310     7.0910 ca         1 X6G      -0.141000
      9 CAS          1.9420     0.9230     5.9750 ca         1 X6G      -0.067300
     10 CAB          3.1790     1.7790     6.0550 c3         1 X6G      -0.045300
     11 CAI          1.2420     0.8290     4.7880 ca         1 X6G      -0.140000
     12 CAT          0.0990     0.0450     4.7160 ca         1 X6G       0.160600
     13 C2           0.0220     0.0010     2.3040 ca         1 X6G       0.969900
     14 NBA         -0.7080     0.0000    -1.2030 na         1 X6G       0.031600
     15 CAJ         -2.0600     0.0060    -1.3360 cc         1 X6G      -0.057300
     16 NAP         -0.1510    -0.0000    -2.4890 nc         1 X6G      -0.504800
     17 CAU         -1.1270     0.0000    -3.3580 cd         1 X6G       0.366600
     18 CAC         -0.9730    -0.0010    -4.8580 c3         1 X6G      -0.114400
     19 CAV         -2.3400     0.0030    -2.6600 cd         1 X6G      -0.293600
     20 CAK         -3.7160     0.0070    -3.2740 c3         1 X6G       0.214100
     21 NAZ         -4.0720    -1.3560    -3.6890 nq         1 X6G      -0.660600
     22 CAM         -3.6580    -1.6100    -5.0860 cy         1 X6G       0.099300
     23 CAL         -5.4980    -1.4380    -4.0750 cy         1 X6G       0.099300
     24 CAY         -5.0220    -2.3040    -5.2560 cy         1 X6G       0.107100
     25 OAD         -5.6730    -2.0000    -6.4910 oh         1 X6G      -0.596800
     26 H1           1.9490    -0.0030    -0.9310 ha         1 X6G       0.170000
     27 H2           3.1360    -0.0000     1.2520 h4         1 X6G       0.035100
     28 H3          -1.1370    -1.0680     8.4330 hc         1 X6G       0.043367
     29 H4           0.5020    -1.0210     9.0960 hc         1 X6G       0.043367
     30 H5           0.0010    -2.3720     8.0690 hc         1 X6G       0.043367
     31 H6          -1.2260    -1.2620     5.7870 ha         1 X6G       0.144000
     32 H7           2.0570     0.3060     8.0210 ha         1 X6G       0.130000
     33 H8           4.0300     1.2200     5.6850 hc         1 X6G       0.043367
     34 H9           3.0420     2.6690     5.4530 hc         1 X6G       0.043367
     35 H10          3.3560     2.0640     7.0850 hc         1 X6G       0.043367
     36 H11          1.5830     1.3710     3.9140 ha         1 X6G       0.144000
     37 H13         -2.7830     0.0080    -0.5290 h4         1 X6G       0.190000
     38 H14         -1.7590     0.5980    -5.3020 hc         1 X6G       0.053367
     39 H15         -0.0090     0.4170    -5.1220 hc         1 X6G       0.053367
     40 H16         -1.0400    -1.0170    -5.2270 hc         1 X6G       0.053367
     41 H17         -4.4350     0.3620    -2.5460 h1         1 X6G       0.044200
     42 H18         -3.7240     0.6610    -4.1380 h1         1 X6G       0.044200
     43 H20         -2.8210    -2.2930    -5.1650 h1         1 X6G       0.065450
     44 H21         -3.5650    -0.7040    -5.6740 h1         1 X6G       0.065450
     45 H22         -5.9100    -0.4850    -4.3850 h1         1 X6G       0.065450
     46 H23         -6.1020    -1.9850    -3.3620 h1         1 X6G       0.065450
     47 H24         -4.9890    -3.3590    -5.0150 h1         1 X6G       0.066700
     48 H25         -6.0770    -2.7800    -6.8330 ho         1 X6G       0.403000
     49 NAQ         -0.6810     0.0010     3.4970 nu         1 X6G      -0.767300
     50 CAA         -0.0980    -1.3070     8.2400 c3         1 X6G      -0.045300
     51 H12         -1.6800    -0.0340     3.5440 hn         1 X6G       0.472800
@<TRIPOS>BOND
     1     4     3 ar
     2     4    13 ar
     3    10     9 1
     4     3     2 ar
     5    11     9 ar
     6    11    12 ar
     7    49    13 1
     8    49    12 1
     9    13     5 ar
    10     9     8 ar
    11    12     7 ar
    12     2     1 ar
    13     5     1 ar
    14     8     6 ar
    15     1    14 1
    16     7     6 ar
    17     6    50 1
    18    14    16 1
    19    14    15 1
    20    16    17 2
    21    15    19 2
    22    22    24 1
    23    22    21 1
    24    24    25 1
    25    24    23 1
    26    17    19 1
    27    17    18 1
    28    19    20 1
    29    21    23 1
    30    21    20 1
    31     2    26 1
    32     3    27 1
    33    50    28 1
    34    50    29 1
    35    50    30 1
    36     7    31 1
    37     8    32 1
    38    10    33 1
    39    10    34 1
    40    10    35 1
    41    11    36 1
    42    49    51 1
    43    15    37 1
    44    18    38 1
    45    18    39 1
    46    18    40 1
    47    20    41 1
    48    20    42 1
    49    22    43 1
    50    22    44 1
    51    23    45 1
    52    23    46 1
    53    24    47 1
    54    25    48 1
@<TRIPOS>SUBSTRUCTURE
     1 X6G         1 TEMP              0 ****  ****    0 ROOT
