@<TRIPOS>MOLECULE
X6G
   51    54     1     0     0
SMALL
bcc


@<TRIPOS>ATOM
      1 C4           0.0000     0.0000     0.0000 ca         1 X6G       0.420800
      2 C5           1.3940     0.0000     0.0000 ca         1 X6G      -0.410600
      3 C6           2.0530     0.0000     1.2160 ca         1 X6G       0.503200
      4 N1           1.3480     0.0010     2.3350 nb         1 X6G      -0.698000
      5 N3          -0.6450     0.0060     1.1600 nb         1 X6G      -0.719000
      6 CAR          0.3730    -0.5560     7.0220 ca         1 X6G      -0.071800
      7 CAH         -0.3340    -0.6490     5.8390 ca         1 X6G      -0.116500
      8 CAG          1.5070     0.2310     7.0910 ca         1 X6G      -0.112000
      9 CAS          1.9420     0.9230     5.9750 ca         1 X6G      -0.071800
     10 CAB          3.1790     1.7790     6.0550 c3         1 X6G       0.064700
     11 CAI          1.2420     0.8290     4.7880 ca         1 X6G      -0.116500
     12 CAT          0.0990     0.0450     4.7160 ca         1 X6G       0.005600
     13 C2           0.0220     0.0010     2.3040 ca         1 X6G       0.731900
     14 NBA         -0.7080     0.0000    -1.2030 na         1 X6G       0.495600
     15 CAJ         -2.0600     0.0060    -1.3360 cc         1 X6G      -0.210300
     16 NAP         -0.1510    -0.0000    -2.4890 nc         1 X6G      -0.655800
     17 CAU         -1.1270     0.0000    -3.3580 cd         1 X6G       0.389600
     18 CAC         -0.9730    -0.0010    -4.8580 c3         1 X6G      -0.018400
     19 CAV         -2.3400     0.0030    -2.6600 cd         1 X6G      -0.308600
     20 CAK         -3.7160     0.0070    -3.2740 c3         1 X6G       0.247100
     21 NAZ         -4.0720    -1.3560    -3.6890 nq         1 X6G      -0.535600
     22 CAM         -3.6580    -1.6100    -5.0860 cy         1 X6G       0.107300
     23 CAL         -5.4980    -1.4380    -4.0750 cy         1 X6G       0.107300
     24 CAY         -5.0220    -2.3040    -5.2560 cy         1 X6G       0.151100
     25 OAD         -5.6730    -2.0000    -6.4910 oh         1 X6G      -0.573800
     26 H1           1.9490    -0.0030    -0.9310 ha         1 X6G       0.153000
     27 H2           3.1360    -0.0000     1.2520 h4         1 X6G      -0.014900
     28 H3          -1.1370    -1.0680     8.4330 hc         1 X6G       0.007367
     29 H4           0.5020    -1.0210     9.0960 hc         1 X6G       0.007367
     30 H5           0.0010    -2.3720     8.0690 hc         1 X6G       0.007367
     31 H6          -1.2260    -1.2620     5.7870 ha         1 X6G       0.122000
     32 H7           2.0570     0.3060     8.0210 ha         1 X6G       0.109000
     33 H8           4.0300     1.2200     5.6850 hc         1 X6G       0.007367
     34 H9           3.0420     2.6690     5.4530 hc         1 X6G       0.007367
     35 H10          3.3560     2.0640     7.0850 hc         1 X6G       0.007367
     36 H11          1.5830     1.3710     3.9140 ha         1 X6G       0.122000
     37 H13         -2.7830     0.0080    -0.5290 h4         1 X6G       0.161000
     38 H14         -1.7590     0.5980    -5.3020 hc         1 X6G       0.015700
     39 H15         -0.0090     0.4170    -5.1220 hc         1 X6G       0.015700
     40 H16         -1.0400    -1.0170    -5.2270 hc         1 X6G       0.015700
     41 H17         -4.4350     0.3620    -2.5460 h1         1 X6G       0.014700
     42 H18         -3.7240     0.6610    -4.1380 h1         1 X6G       0.014700
     43 H20         -2.8210    -2.2930    -5.1650 h1         1 X6G       0.035700
     44 H21         -3.5650    -0.7040    -5.6740 h1         1 X6G       0.035700
     45 H22         -5.9100    -0.4850    -4.3850 h1         1 X6G       0.035700
     46 H23         -6.1020    -1.9850    -3.3620 h1         1 X6G       0.035700
     47 H24         -4.9890    -3.3590    -5.0150 h1         1 X6G       0.031700
     48 H25         -6.0770    -2.7800    -6.8330 ho         1 X6G       0.390000
     49 NAQ         -0.6810     0.0010     3.4970 nu         1 X6G      -0.305300
     50 CAA         -0.0980    -1.3070     8.2400 c3         1 X6G       0.064700
     51 H12         -1.6800    -0.0340     3.5440 hn         1 X6G       0.300800
@<TRIPOS>BOND
     1     1     2 ar  
     2     1     5 ar  
     3     1    14 1   
     4     2     3 ar  
     5     2    26 1   
     6     3     4 ar  
     7     3    27 1   
     8     4    13 ar  
     9     5    13 ar  
    10     6     7 ar  
    11     6     8 ar  
    12     6    50 1   
    13     7    12 ar  
    14     7    31 1   
    15     8     9 ar  
    16     8    32 1   
    17     9    10 1   
    18     9    11 ar  
    19    10    33 1   
    20    10    34 1   
    21    10    35 1   
    22    11    12 ar  
    23    11    36 1   
    24    12    49 1   
    25    13    49 1   
    26    14    15 1   
    27    14    16 1   
    28    15    19 2   
    29    15    37 1   
    30    16    17 2   
    31    17    18 1   
    32    17    19 1   
    33    18    38 1   
    34    18    39 1   
    35    18    40 1   
    36    19    20 1   
    37    20    21 1   
    38    20    41 1   
    39    20    42 1   
    40    21    22 1   
    41    21    23 1   
    42    22    24 1   
    43    22    43 1   
    44    22    44 1   
    45    23    24 1   
    46    23    45 1   
    47    23    46 1   
    48    24    25 1   
    49    24    47 1   
    50    25    48 1   
    51    28    50 1   
    52    29    50 1   
    53    30    50 1   
    54    49    51 1   
@<TRIPOS>SUBSTRUCTURE
     1 X6G         1 TEMP              0 ****  ****    0 ROOT
