@<TRIPOS>MOLECULE
X6K
   42    46     1     0     0
SMALL
bcc


@<TRIPOS>ATOM
      1 N01        -0.1050   -0.2960   -0.0050 nb        1 X6K     -0.646000
      2 C02         1.2470   -0.3090    0.0240 ca        1 X6K      0.428200
      3 C03         2.0340   -0.2900    1.1930 ca        1 X6K     -0.275300
      4 C04         1.4200   -0.2550    2.4490 ca        1 X6K     -0.013000
      5 C05         0.0320   -0.2390    2.4750 cp        1 X6K     -0.308800
      6 C06        -0.6740   -0.2610    1.2180 ca        1 X6K      0.591600
      7 O07        -2.0720   -0.2410    1.4070 os        1 X6K     -0.286400
      8 C08        -2.2470   -0.2140    2.7960 ca        1 X6K     -0.198500
      9 C09        -0.9970   -0.2070    3.5050 cp        1 X6K      0.477800
     10 N10        -0.9190   -0.1720    4.8460 nb        1 X6K     -0.671000
     11 C11        -3.4660   -0.1820    3.5240 ca        1 X6K      0.690200
     12 N12        -4.7110   -0.0650    2.8720 nh        1 X6K     -0.725300
     13 C13        -5.8870    0.1150    3.7160 c3        1 X6K      0.151800
     14 C14        -7.1440    0.4210    2.8900 c3        1 X6K      0.121900
     15 O15        -7.3480   -0.5400    1.8610 os        1 X6K     -0.412600
     16 C16        -6.2270   -0.6300    0.9910 c3        1 X6K      0.121900
     17 C17        -4.9410   -0.9740    1.7560 c3        1 X6K      0.151800
     18 N18        -3.3740   -0.1680    4.8940 nb        1 X6K     -0.731000
     19 C19        -2.1390   -0.1530    5.4810 cp        1 X6K      0.717500
     20 C20        -2.1150   -0.1230    6.9710 cp        1 X6K     -0.099500
     21 C21        -2.9770   -0.9450    7.7040 ca        1 X6K     -0.124000
     22 C22        -2.9470   -0.9130    9.0990 ca        1 X6K     -0.108000
     23 C23        -2.0710   -0.0710    9.7750 ca        1 X6K     -0.141000
     24 C24        -1.2100    0.7510    9.0280 ca        1 X6K      0.114100
     25 O25        -0.3650    1.5660    9.7480 oh        1 X6K     -0.498100
     26 C26        -1.2240    0.7320    7.6270 ca        1 X6K     -0.174000
     27 H02         1.7240   -0.3370   -0.9730 h4        1 X6K      0.033100
     28 H03         3.1300   -0.3030    1.1100 ha        1 X6K      0.152000
     29 H04         2.0070   -0.2410    3.3790 ha        1 X6K      0.161000
     30 H131       -6.0800   -0.8050    4.3400 h1        1 X6K      0.063700
     31 H132       -5.7040    0.9820    4.4100 h1        1 X6K      0.063700
     32 H171       -4.0800   -0.9040    1.0340 h1        1 X6K      0.063700
     33 H172       -5.0140   -2.0380    2.1220 h1        1 X6K      0.063700
     34 H141       -7.0850    1.4470    2.4410 h1        1 X6K      0.060200
     35 H142       -8.0540    0.3340    3.5400 h1        1 X6K      0.060200
     36 H161       -6.4810   -1.4650    0.2870 h1        1 X6K      0.060200
     37 H162       -6.1070    0.3320    0.4270 h1        1 X6K      0.060200
     38 H21        -3.6790   -1.6170    7.1880 ha        1 X6K      0.148000
     39 H26        -0.5410    1.3790    7.0590 ha        1 X6K      0.148000
     40 H22        -3.6260   -1.5630    9.6720 ha        1 X6K      0.138000
     41 H23        -2.0380   -0.0360   10.8730 ha        1 X6K      0.152000
     42 H25         0.1790    2.0620    9.1180 ho        1 X6K      0.420000
@<TRIPOS>BOND
     1    1    2 ar
     2    1    6 ar
     3    2    3 ar
     4    2   27 1
     5    3    4 ar
     6    3   28 1
     7    4    5 ar
     8    4   29 1
     9    5    6 ar
    10    5    9 1
    11    6    7 1
    12    7    8 1
    13    8    9 ar
    14    8   11 ar
    15    9   10 ar
    16   10   19 ar
    17   11   12 1
    18   11   18 ar
    19   12   13 1
    20   12   17 1
    21   13   14 1
    22   13   30 1
    23   13   31 1
    24   14   15 1
    25   14   34 1
    26   14   35 1
    27   15   16 1
    28   16   17 1
    29   16   36 1
    30   16   37 1
    31   17   32 1
    32   17   33 1
    33   18   19 ar
    34   19   20 1
    35   20   21 ar
    36   20   26 ar
    37   21   22 ar
    38   21   38 1
    39   22   23 ar
    40   22   40 1
    41   23   24 ar
    42   23   41 1
    43   24   25 1
    44   24   26 ar
    45   25   42 1
    46   26   39 1
@<TRIPOS>SUBSTRUCTURE
     1 X6K         1 TEMP              0 ****  ****    0 ROOT
