@<TRIPOS>MOLECULE
molecule
   43    46     1     0     0
SMALL
bcc


@<TRIPOS>ATOM
      1 C22          0.0000     0.0000     0.0000 ca         1 X6L      -0.114000
      2 C21          1.3840     0.0000     0.0000 ca         1 X6L      -0.125000
      3 C23         -0.6970     0.0010     1.1950 ca         1 X6L      -0.125000
      4 C20          2.0760     0.0000     1.1940 ca         1 X6L      -0.112500
      5 C24         -0.0160     0.0010     2.3950 ca         1 X6L      -0.112500
      6 C15          1.4140    -0.0000     4.8930 ca         1 X6L      -0.122500
      7 C17          3.5120    -0.0010     3.6890 ca         1 X6L      -0.122500
      8 C14          2.0950    -0.0010     6.0840 ca         1 X6L      -0.090500
      9 C18          4.1970    -0.0020     4.8770 ca         1 X6L      -0.090500
     10 C19          1.3780     0.0010     2.4020 cp         1 X6L      -0.055000
     11 C16          2.1160    -0.0000     3.6870 cp         1 X6L       0.001000
     12 C13          3.4940    -0.0020     6.0890 ca         1 X6L      -0.187600
     13 C5           5.8080    -1.4280    11.7770 cc         1 X6L       0.221800
     14 C4           7.1530    -1.4010    11.5530 cd         1 X6L       0.100800
     15 C7           6.2940     0.4280    10.7700 cd         1 X6L       0.743800
     16 C25          5.1710    -2.6330    12.4810 c          1 X6L       0.649000
     17 C2           7.4070    -3.6950    12.6630 cc         1 X6L       0.475800
     18 C11          4.2390     0.0170     7.3560 c          1 X6L       0.585700
     19 C10          4.8100    -1.2820     7.9270 c3         1 X6L      -0.095300
     20 N6           5.2900    -0.3030    11.2950 nc         1 X6L      -0.606000
     21 N3           8.0080    -2.5430    11.9910 nd         1 X6L      -0.527100
     22 N8           7.4420    -0.2590    10.9350 na         1 X6L      -0.305900
     23 N27          5.9880    -3.7290    12.9030 ns         1 X6L      -0.492400
     24 N1           8.2300    -4.8380    13.0140 nz         1 X6L      -0.747600
     25 O26          4.0070    -2.6430    12.7020 o          1 X6L      -0.467500
     26 O12          4.4060     1.0400     7.9290 o          1 X6L      -0.470100
     27 S9           4.8460    -1.1810     9.7420 ss         1 X6L      -0.394400
     28 H22         -0.5420     0.0060    -0.9380 ha         1 X6L       0.136000
     29 H21          1.9250    -0.0010    -0.9380 ha         1 X6L       0.136000
     30 H23         -1.7810     0.0010     1.1900 ha         1 X6L       0.136000
     31 H20          3.1600     0.0000     1.1920 ha         1 X6L       0.132000
     32 H24         -0.5650    -0.0250     3.3290 ha         1 X6L       0.132000
     33 H15          0.3310     0.0010     4.8890 ha         1 X6L       0.144500
     34 H14          1.5500    -0.0010     7.0200 ha         1 X6L       0.136000
     35 H17          4.0550    -0.0270     2.7520 ha         1 X6L       0.144500
     36 H18          5.2800     0.0330     4.8780 ha         1 X6L       0.136000
     37 H8           8.3520     0.0380    10.6430 hn         1 X6L       0.342700
     38 H27          5.5740    -4.5160    13.3630 hn         1 X6L       0.350500
     39 H11N         7.9170    -5.6420    12.5060 hn         1 X6L       0.482800
     40 H12N         8.1550    -5.0140    13.9960 hn         1 X6L       0.482800
     41 H101         4.1870    -2.1140     7.6240 h1         1 X6L       0.105200
     42 H102         5.8160    -1.4290     7.5540 h1         1 X6L       0.105200
     43 H13          9.1270    -4.7490    12.5800 hn         1 X6L       0.482800
@<TRIPOS>BOND
     1     1     2 ar
     2     1     3 ar
     3     2     4 ar
     4     3     5 ar
     5     4    10 ar
     6     5    10 ar
     7     6     8 ar
     8     6    11 ar
     9     7     9 ar
    10     7    11 ar
    11     8    12 ar
    12     9    12 ar
    13    10    11 1
    14    12    18 1
    15    13    14 2
    16    13    16 1
    17    13    20 1
    18    14    21 1
    19    14    22 1
    20    15    20 2
    21    15    22 1
    22    15    27 1
    23    16    23 1
    24    16    25 2
    25    17    21 2
    26    17    23 1
    27    17    24 1
    28    18    19 1
    29    18    26 2
    30    19    27 1
    31     1    28 1
    32     2    29 1
    33     3    30 1
    34     4    31 1
    35     5    32 1
    36     6    33 1
    37     8    34 1
    38     7    35 1
    39     9    36 1
    40    22    37 1
    41    23    38 1
    42    24    39 1
    43    24    40 1
    44    19    41 1
    45    19    42 1
    46    43    24 1
@<TRIPOS>SUBSTRUCTURE
     1 X6L         1 TEMP              0 ****  ****    0 ROOT
