@<TRIPOS>MOLECULE
molecule
   25    26     1     0     0
SMALL
bcc


@<TRIPOS>ATOM
      1 N            0.0000     0.0000     0.0000 na         1 X6P      -0.044100
      2 C           -0.8540     0.0050    -1.1900 c3         1 X6P       0.027600
      3 O            0.9020    -1.2660    -4.9450 o          1 X6P      -0.838800
      4 C1           1.3710     0.0000     0.0000 cc         1 X6P      -0.031300
      5 C10          0.6410     0.0000     2.1060 cd         1 X6P      -0.217000
      6 C11         -0.4350    -0.0000     1.2920 cc         1 X6P      -0.178300
      7 C2           2.2410     0.0010    -1.1960 ca         1 X6P      -0.054000
      8 C3           3.5660     0.4310    -1.0960 ca         1 X6P      -0.132000
      9 C4           4.3830     0.4280    -2.2100 ca         1 X6P      -0.164000
     10 C5           3.8960    -0.0000    -3.4290 ca         1 X6P      -0.090000
     11 C6           2.5720    -0.4330    -3.5430 ca         1 X6P      -0.103600
     12 C7           2.0530    -0.8890    -4.8480 c          1 X6P       0.883200
     13 C8           1.7440    -0.4320    -2.4220 ca         1 X6P      -0.112000
     14 C9           1.7890     0.0000     1.2960 cd         1 X6P      -0.218000
     15 O1           2.8550    -0.8890    -5.9300 o          1 X6P      -0.838800
     16 H           -0.8160    -0.9680    -1.6660 h1         1 X6P       0.057033
     17 H1          -0.5050     0.7600    -1.8830 h1         1 X6P       0.057033
     18 H2          -1.8750     0.2250    -0.9000 h1         1 X6P       0.057033
     19 H8           0.6240     0.0000     3.1900 ha         1 X6P       0.130000
     20 H9          -1.4700    -0.0000     1.6110 h4         1 X6P       0.149000
     21 H3           3.9540     0.7690    -0.1430 ha         1 X6P       0.111000
     22 H4           5.4100     0.7630    -2.1270 ha         1 X6P       0.107000
     23 H5           4.5420    -0.0010    -4.2990 ha         1 X6P       0.154000
     24 H6           0.7170    -0.7660    -2.5050 ha         1 X6P       0.146000
     25 H7           2.8170     0.0000     1.6390 ha         1 X6P       0.141000
@<TRIPOS>BOND
     1     9    10 ar
     2     9     8 ar
     3    10    11 ar
     4     8     7 ar
     5     3    12 1
     6     2     1 1
     7    11    12 1
     8    11    13 ar
     9     7    13 ar
    10     7     4 1
    11    12    15 1
    12     1     4 1
    13     1     6 1
    14     4    14 2
    15     6     5 2
    16    14     5 1
    17     2    16 1
    18     2    17 1
    19     2    18 1
    20     5    19 1
    21     6    20 1
    22     8    21 1
    23     9    22 1
    24    10    23 1
    25    13    24 1
    26    14    25 1
@<TRIPOS>SUBSTRUCTURE
     1 X6P         1 TEMP              0 ****  ****    0 ROOT
