@<TRIPOS>MOLECULE
X6W
   30    31     1     0     0
SMALL
bcc


@<TRIPOS>ATOM
      1 CAB          0.0000     0.0000     0.0000 c3         1 X6W       0.015600
      2 NAO          1.4650     0.0000     0.0000 na         1 X6W       0.517400
      3 CAM          2.2570     0.0000     1.0930 cc         1 X6W      -0.242600
      4 CAI          1.7910     0.0020     2.5260 c3         1 X6W       0.233100
      5 NAK          1.5250     1.3820     2.9520 n7         1 X6W      -0.591200
      6 CAA          1.0670     1.4230     4.3480 c3         1 X6W       0.179100
      7 NAJ          2.2870    -0.0070    -1.1350 nc         1 X6W      -0.649800
      8 CAN          3.5400    -0.0060    -0.7320 cd         1 X6W       0.427800
      9 CAH          3.5430    -0.0010     0.6760 cd         1 X6W      -0.321300
     10 CAL          4.7390    -0.0130    -1.6070 ca         1 X6W      -0.113500
     11 CAG          4.5920    -0.0210    -2.9930 ca         1 X6W      -0.084500
     12 CAE          5.7100    -0.0280    -3.8020 ca         1 X6W      -0.106500
     13 CAC          6.9740    -0.0260    -3.2400 ca         1 X6W      -0.100000
     14 CAD          7.1250    -0.0180    -1.8650 ca         1 X6W      -0.106500
     15 CAF          6.0140    -0.0050    -1.0470 ca         1 X6W      -0.084500
     16 HAB1        -0.3610    -0.0860    -1.0180 h1         1 X6W       0.024367
     17 HAB2        -0.3610    -0.8380     0.5830 h1         1 X6W       0.024367
     18 HAB3        -0.3610     0.9240     0.4340 h1         1 X6W       0.024367
     19 HAI1         2.5590    -0.4290     3.1560 h1         1 X6W       0.013200
     20 HAI2         0.8830    -0.5840     2.6100 h1         1 X6W       0.013200
     21 HAH          4.4200    -0.0000     1.3130 ha         1 X6W       0.136000
     22 HAK          2.3590     1.9270     2.8590 hn         1 X6W       0.261800
     23 HAA1         1.8380     1.0200     4.9930 h1         1 X6W      -0.000633
     24 HAA2         0.1650     0.8310     4.4500 h1         1 X6W      -0.000633
     25 HAA3         0.8590     2.4480     4.6300 h1         1 X6W      -0.000633
     26 HAG          3.6030    -0.0220    -3.4340 ha         1 X6W       0.114000
     27 HAF          6.1330     0.0020     0.0300 ha         1 X6W       0.114000
     28 HAE          5.5980    -0.0340    -4.8800 ha         1 X6W       0.101500
     29 HAC          7.8490    -0.0340    -3.8790 ha         1 X6W       0.100000
     30 HAD          8.1170    -0.0140    -1.4300 ha         1 X6W       0.101500
@<TRIPOS>BOND
     1     1     2 1   
     2     1    16 1   
     3     1    17 1   
     4     1    18 1   
     5     2     3 1   
     6     2     7 1   
     7     3     4 1   
     8     3     9 2   
     9     4     5 1   
    10     4    19 1   
    11     4    20 1   
    12     5     6 1   
    13     5    22 1   
    14     6    23 1   
    15     6    24 1   
    16     6    25 1   
    17     7     8 2   
    18     8     9 1   
    19     8    10 1   
    20     9    21 1   
    21    10    11 ar  
    22    10    15 ar  
    23    11    12 ar  
    24    11    26 1   
    25    12    13 ar  
    26    12    28 1   
    27    13    14 ar  
    28    13    29 1   
    29    14    15 ar  
    30    14    30 1   
    31    15    27 1   
@<TRIPOS>SUBSTRUCTURE
     1 X6W         1 TEMP              0 ****  ****    0 ROOT
