@<TRIPOS>MOLECULE
molecule
   30    31     1     0     0
SMALL
bcc


@<TRIPOS>ATOM
      1 CAB          0.0000     0.0000     0.0000 c3         1 X6W       0.063600
      2 NAO          1.4650     0.0000     0.0000 na         1 X6W       0.083400
      3 CAM          2.2570     0.0000     1.0930 cc         1 X6W      -0.068600
      4 CAI          1.7910     0.0020     2.5260 c3         1 X6W       0.221100
      5 NAK          1.5250     1.3820     2.9520 n7         1 X6W      -0.820200
      6 CAA          1.0670     1.4230     4.3480 c3         1 X6W       0.145100
      7 NAJ          2.2870    -0.0070    -1.1350 nc         1 X6W      -0.506800
      8 CAN          3.5400    -0.0060    -0.7320 cd         1 X6W       0.393800
      9 CAH          3.5430    -0.0010     0.6760 cd         1 X6W      -0.338300
     10 CAL          4.7390    -0.0130    -1.6070 ca         1 X6W      -0.110500
     11 CAG          4.5920    -0.0210    -2.9930 ca         1 X6W      -0.107000
     12 CAE          5.7100    -0.0280    -3.8020 ca         1 X6W      -0.133000
     13 CAC          6.9740    -0.0260    -3.2400 ca         1 X6W      -0.125000
     14 CAD          7.1250    -0.0180    -1.8650 ca         1 X6W      -0.133000
     15 CAF          6.0140    -0.0050    -1.0470 ca         1 X6W      -0.107000
     16 HAB1        -0.3610    -0.0860    -1.0180 h1         1 X6W       0.056367
     17 HAB2        -0.3610    -0.8380     0.5830 h1         1 X6W       0.056367
     18 HAB3        -0.3610     0.9240     0.4340 h1         1 X6W       0.056367
     19 HAI1         2.5590    -0.4290     3.1560 h1         1 X6W       0.045700
     20 HAI2         0.8830    -0.5840     2.6100 h1         1 X6W       0.045700
     21 HAH          4.4200    -0.0000     1.3130 ha         1 X6W       0.152000
     22 HAK          2.3590     1.9270     2.8590 hn         1 X6W       0.362800
     23 HAA1         1.8380     1.0200     4.9930 h1         1 X6W       0.032700
     24 HAA2         0.1650     0.8310     4.4500 h1         1 X6W       0.032700
     25 HAA3         0.8590     2.4480     4.6300 h1         1 X6W       0.032700
     26 HAG          3.6030    -0.0220    -3.4340 ha         1 X6W       0.139500
     27 HAF          6.1330     0.0020     0.0300 ha         1 X6W       0.139500
     28 HAE          5.5980    -0.0340    -4.8800 ha         1 X6W       0.129500
     29 HAC          7.8490    -0.0340    -3.8790 ha         1 X6W       0.128000
     30 HAD          8.1170    -0.0140    -1.4300 ha         1 X6W       0.129500
@<TRIPOS>BOND
     1     1     2 1
     2     2     3 1
     3     2     7 1
     4     3     4 1
     5     3     9 2
     6     4     5 1
     7     5     6 1
     8     7     8 2
     9     8     9 1
    10     8    10 1
    11    10    11 ar
    12    10    15 ar
    13    11    12 ar
    14    12    13 ar
    15    13    14 ar
    16    14    15 ar
    17     1    16 1
    18     1    17 1
    19     1    18 1
    20     4    19 1
    21     4    20 1
    22     9    21 1
    23     5    22 1
    24     6    23 1
    25     6    24 1
    26     6    25 1
    27    11    26 1
    28    15    27 1
    29    12    28 1
    30    13    29 1
    31    14    30 1
@<TRIPOS>SUBSTRUCTURE
     1 X6W         1 TEMP              0 ****  ****    0 ROOT
