@<TRIPOS>MOLECULE
molecule
   32    33     1     0     0
SMALL
bcc


@<TRIPOS>ATOM
      1 N01          0.0000     0.0000     0.0000 nu         1 X72      -0.756600
      2 N02          3.1180     0.1160     2.7930 nz         1 X72      -0.675400
      3 N03         -4.1490     1.2050     0.8910 nb         1 X72      -0.722500
      4 N04         -4.2210    -1.0870     0.6740 nb         1 X72      -0.722500
      5 C06          3.6930     0.0000     0.0000 ca         1 X72       0.000000
      6 C07          2.3750     0.0000     0.4680 ca         1 X72      -0.321600
      7 C08          1.3140     0.0010    -0.4510 ca         1 X72       0.314600
      8 C09          1.5840     0.0020    -1.8130 ca         1 X72      -0.211000
      9 C10          2.8910     0.0030    -2.2590 ca         1 X72       0.155400
     10 C11          3.9420     0.0020    -1.3550 ca         1 X72      -0.198200
     11 C13         -1.1030     0.1250    -0.9570 c3         1 X72       0.273100
     12 C14         -2.4150     0.0970    -0.2170 ca         1 X72      -0.405900
     13 C15         -2.9950     1.2680     0.2450 ca         1 X72       0.484700
     14 C16         -4.7430     0.0470     1.0970 ca         1 X72       0.710900
     15 C17         -3.0710    -1.1010     0.0200 ca         1 X72       0.484700
     16 O18          0.9610    -0.1120     2.3180 o          1 X72      -0.470100
     17 O19          6.2620     0.0130    -1.0530 o          1 X72      -0.173500
     18 O20          5.5620     0.0100    -3.0430 o          1 X72      -0.173500
     19 Cl21         3.2210     0.0050    -3.9640 cl         1 X72       0.029600
     20 HN01        -0.1940    -0.1300     0.9730 hn         1 X72       0.483800
     21 H102         3.7250    -0.6750     2.7110 hn         1 X72       0.482467
     22 H202         3.6240     0.9490     2.5640 hn         1 X72       0.482467
     23 H06          4.5170    -0.0010     0.7030 ha         1 X72       0.146000
     24 H09          0.7690     0.0030    -2.5270 ha         1 X72       0.188000
     25 H113        -1.0110     1.0610    -1.4930 h1         1 X72       0.068700
     26 H213        -1.0670    -0.6990    -1.6590 h1         1 X72       0.068700
     27 H15         -2.5110     2.2230     0.0790 h4         1 X72       0.035100
     28 H16         -5.6870     0.0260     1.6290 h5         1 X72       0.079100
     29 H17         -2.6480    -2.0370    -0.3250 h4         1 X72       0.035100
     30 H023         2.7500     0.1590     3.7230 hn         1 X72       0.482467
     31 C12          2.1030    -0.0030     1.9160 c          1 X72       0.525700
     32 N05          5.3380     0.0090    -1.8460 no         1 X72       0.297200
@<TRIPOS>BOND
     1     1     7 1
     2     1    11 1
     3     1    20 1
     4     2    31 1
     5     2    21 1
     6     2    22 1
     7     4    14 ar
     8    32    17 1
     9     5    10 ar
    10     5    23 1
    11     6     5 ar
    12     6     7 ar
    13     7     8 ar
    14     8     9 ar
    15     8    24 1
    16     9    19 1
    17    10    32 1
    18    10     9 ar
    19    31     6 1
    20    11    12 1
    21    11    25 1
    22    11    26 1
    23    12    13 ar
    24    13     3 ar
    25    13    27 1
    26    14     3 ar
    27    14    28 1
    28    15    12 ar
    29    15     4 ar
    30    15    29 1
    31    16    31 2
    32    18    32 1
    33    30     2 1
@<TRIPOS>SUBSTRUCTURE
     1 X72         1 TEMP              0 ****  ****    0 ROOT
