@<TRIPOS>MOLECULE
X72
   32    33     1     0     0
SMALL
bcc


@<TRIPOS>ATOM
      1 N01          0.0000     0.0000     0.0000 nu         1 X72      -0.338600
      2 N02          3.1180     0.1160     2.7930 nz         1 X72       0.206600
      3 N03         -4.1490     1.2050     0.8910 nb         1 X72      -0.611500
      4 N04         -4.2210    -1.0870     0.6740 nb         1 X72      -0.611500
      5 C06          3.6930     0.0000     0.0000 ca         1 X72       0.073000
      6 C07          2.3750     0.0000     0.4680 ca         1 X72      -0.353600
      7 C08          1.3140     0.0010    -0.4510 ca         1 X72       0.184600
      8 C09          1.5840     0.0020    -1.8130 ca         1 X72      -0.210000
      9 C10          2.8910     0.0030    -2.2590 ca         1 X72       0.084400
     10 C11          3.9420     0.0020    -1.3550 ca         1 X72      -0.482200
     11 C13         -1.1030     0.1250    -0.9570 c3         1 X72       0.223100
     12 C14         -2.4150     0.0970    -0.2170 ca         1 X72      -0.408900
     13 C15         -2.9950     1.2680     0.2450 ca         1 X72       0.470700
     14 C16         -4.7430     0.0470     1.0970 ca         1 X72       0.662900
     15 C17         -3.0710    -1.1010     0.0200 ca         1 X72       0.470700
     16 O18          0.9610    -0.1120     2.3180 o          1 X72      -0.502100
     17 O19          6.2620     0.0130    -1.0530 o          1 X72      -0.429500
     18 O20          5.5620     0.0100    -3.0430 o          1 X72      -0.429500
     19 Cl21         3.2210     0.0050    -3.9640 cl         1 X72       0.153600
     20 HN01        -0.1940    -0.1300     0.9730 hn         1 X72       0.347800
     21 H102         3.7250    -0.6750     2.7110 hn         1 X72       0.248800
     22 H202         3.6240     0.9490     2.5640 hn         1 X72       0.248800
     23 H06          4.5170    -0.0010     0.7030 ha         1 X72       0.107000
     24 H09          0.7690     0.0030    -2.5270 ha         1 X72       0.156000
     25 H113        -1.0110     1.0610    -1.4930 h1         1 X72       0.039200
     26 H213        -1.0670    -0.6990    -1.6590 h1         1 X72       0.039200
     27 H15         -2.5110     2.2230     0.0790 h4         1 X72      -0.011400
     28 H16         -5.6870     0.0260     1.6290 h5         1 X72       0.014100
     29 H17         -2.6480    -2.0370    -0.3250 h4         1 X72      -0.011400
     30 H023         2.7500     0.1590     3.7230 hn         1 X72       0.248800
     31 C12          2.1030    -0.0030     1.9160 c          1 X72       0.374700
     32 N05          5.3380     0.0090    -1.8460 no         1 X72       1.049200
@<TRIPOS>BOND
     1     1     7 1   
     2     1    11 1   
     3     1    20 1   
     4     2    21 1   
     5     2    22 1   
     6     2    30 1   
     7     2    31 1   
     8     3    13 ar  
     9     3    14 ar  
    10     4    14 ar  
    11     4    15 ar  
    12     5     6 ar  
    13     5    10 ar  
    14     5    23 1   
    15     6     7 ar  
    16     6    31 1   
    17     7     8 ar  
    18     8     9 ar  
    19     8    24 1   
    20     9    10 ar  
    21     9    19 1   
    22    10    32 1   
    23    11    12 1   
    24    11    25 1   
    25    11    26 1   
    26    12    13 ar  
    27    12    15 ar  
    28    13    27 1   
    29    14    28 1   
    30    15    29 1   
    31    16    31 2   
    32    17    32 1   
    33    18    32 1   
@<TRIPOS>SUBSTRUCTURE
     1 X72         1 TEMP              0 ****  ****    0 ROOT
