@<TRIPOS>MOLECULE
X73
   33    34     1     0     0
SMALL
bcc


@<TRIPOS>ATOM
      1 N01          0.0000     0.0000     0.0000 nu         1 X73      -0.331600
      2 N02          3.1190     0.1180     2.7940 nz         1 X73       0.209600
      3 N03         -4.2110    -1.1350     0.6630 nb         1 X73      -0.551000
      4 N04          5.3350     0.0070    -1.8480 no         1 X73       1.045200
      5 C05          3.6910     0.0000     0.0000 ca         1 X73       0.059000
      6 C06          2.3750     0.0000     0.4680 ca         1 X73      -0.347600
      7 C07          1.3130     0.0010    -0.4510 ca         1 X73       0.173600
      8 C08          1.5840     0.0020    -1.8130 ca         1 X73      -0.199000
      9 C09          2.8890     0.0020    -2.2590 ca         1 X73       0.094000
     10 C10          3.9400     0.0000    -1.3550 ca         1 X73      -0.480200
     11 C12         -1.1030     0.1260    -0.9560 c3         1 X73       0.215100
     12 C13         -2.4160     0.0980    -0.2160 ca         1 X73      -0.286600
     13 C14         -3.0630    -1.1010     0.0160 ca         1 X73       0.442200
     14 C15         -4.7860    -0.0340     1.1120 ca         1 X73       0.414300
     15 C16         -4.1970     1.2010     0.9170 ca         1 X73      -0.206300
     16 C17         -2.9890     1.2750     0.2420 ca         1 X73      -0.035000
     17 O18          0.9600    -0.1090     2.3200 o          1 X73      -0.500100
     18 O19          6.2610     0.0120    -1.0560 o          1 X73      -0.428500
     19 O20          5.5590     0.0070    -3.0450 o          1 X73      -0.428500
     20 Cl21        -6.2990    -0.1410     1.9580 cl         1 X73      -0.037000
     21 HN01        -0.1940    -0.1170     0.9750 hn         1 X73       0.347800
     22 H102         3.7250    -0.6730     2.7110 hn         1 X73       0.245800
     23 H202         2.7800     0.1830     3.7330 hn         1 X73       0.245800
     24 H05          4.5160    -0.0010     0.7020 ha         1 X73       0.106000
     25 H08          0.7680     0.0030    -2.5270 ha         1 X73       0.149000
     26 H09          3.0940     0.0020    -3.3230 ha         1 X73       0.149000
     27 H112        -1.0110     1.0620    -1.4930 h1         1 X73       0.039200
     28 H212        -1.0670    -0.6980    -1.6590 h1         1 X73       0.039200
     29 H14         -2.6210    -2.0250    -0.3380 h4         1 X73      -0.014900
     30 H16         -4.6730     2.1010     1.2880 ha         1 X73       0.135000
     31 H17         -2.5050     2.2300     0.0740 ha         1 X73       0.114000
     32 H023         3.6380     0.9560     2.6200 hn         1 X73       0.245800
     33 C11          2.1020    -0.0010     1.9170 c          1 X73       0.375700
@<TRIPOS>BOND
     1     1     7 1   
     2     1    11 1   
     3     1    21 1   
     4     2    22 1   
     5     2    23 1   
     6     2    32 1   
     7     2    33 1   
     8     3    13 ar  
     9     3    14 ar  
    10     4    10 1   
    11     4    18 1   
    12     4    19 1   
    13     5     6 ar  
    14     5    10 ar  
    15     5    24 1   
    16     6     7 ar  
    17     6    33 1   
    18     7     8 ar  
    19     8     9 ar  
    20     8    25 1   
    21     9    10 ar  
    22     9    26 1   
    23    11    12 1   
    24    11    27 1   
    25    11    28 1   
    26    12    13 ar  
    27    12    16 ar  
    28    13    29 1   
    29    14    15 ar  
    30    14    20 1   
    31    15    16 ar  
    32    15    30 1   
    33    16    31 1   
    34    17    33 2   
@<TRIPOS>SUBSTRUCTURE
     1 X73         1 TEMP              0 ****  ****    0 ROOT
