@<TRIPOS>MOLECULE
molecule
   33    34     1     0     0
SMALL
bcc


@<TRIPOS>ATOM
      1 N01          0.0000     0.0000     0.0000 nu         1 X75      -0.754600
      2 N02          3.1190     0.1190     2.7920 nz         1 X75      -0.675400
      3 N03         -4.2110    -1.1330     0.6640 nb         1 X75      -0.675000
      4 N04          5.3380     0.0070    -1.8460 no         1 X75       0.296200
      5 C05          3.6920     0.0000     0.0000 ca         1 X75       0.000000
      6 C06          2.3750     0.0000     0.4670 ca         1 X75      -0.321600
      7 C07          1.3140     0.0000    -0.4510 ca         1 X75       0.314600
      8 C08          1.5830     0.0000    -1.8140 ca         1 X75      -0.210000
      9 C09          2.8900     0.0010    -2.2600 ca         1 X75       0.155400
     10 C10          3.9420     0.0000    -1.3550 ca         1 X75      -0.198200
     11 C12         -1.1030     0.1260    -0.9560 c3         1 X75       0.269100
     12 C13         -2.4150     0.0970    -0.2160 ca         1 X75      -0.278600
     13 C14         -3.0620    -1.1010     0.0160 ca         1 X75       0.465200
     14 C15         -4.7860    -0.0330     1.1120 ca         1 X75       0.542300
     15 C16         -4.1960     1.2030     0.9160 ca         1 X75      -0.237300
     16 C17         -2.9880     1.2760     0.2410 ca         1 X75      -0.062000
     17 O18          0.9600    -0.1090     2.3190 o          1 X75      -0.470100
     18 O19          5.5620     0.0070    -3.0440 o          1 X75      -0.174000
     19 O20          6.2630     0.0110    -1.0540 o          1 X75      -0.174000
     20 Cl21         3.2210     0.0010    -3.9650 cl         1 X75       0.028600
     21 Cl22        -6.2980    -0.1390     1.9570 cl         1 X75      -0.116000
     22 HN01        -0.1940    -0.1210     0.9740 hn         1 X75       0.483800
     23 H102         3.6320     0.9550     2.5970 hn         1 X75       0.482133
     24 H202         3.7190    -0.6750     2.6820 hn         1 X75       0.482133
     25 H05          4.5160    -0.0000     0.7030 ha         1 X75       0.146000
     26 H08          0.7680     0.0010    -2.5270 ha         1 X75       0.188000
     27 H112        -1.0110     1.0620    -1.4930 h1         1 X75       0.069200
     28 H212        -1.0670    -0.6980    -1.6590 h1         1 X75       0.069200
     29 H14         -2.6200    -2.0240    -0.3370 h4         1 X75       0.034100
     30 H16         -4.6730     2.1030     1.2860 ha         1 X75       0.166000
     31 H17         -2.5030     2.2300     0.0730 ha         1 X75       0.148000
     32 H023         2.7540     0.1610     3.7230 hn         1 X75       0.482133
     33 C11          2.1020    -0.0010     1.9150 c          1 X75       0.525700
@<TRIPOS>BOND
     1     1     7 1
     2     1    11 1
     3     1    22 1
     4     2    33 1
     5     2    23 1
     6     2    24 1
     7     3    14 ar
     8     4    19 1
     9     5    10 ar
    10     5    25 1
    11     6     5 ar
    12     6     7 ar
    13     7     8 ar
    14     8     9 ar
    15     8    26 1
    16     9    20 1
    17    10     4 1
    18    10     9 ar
    19    33     6 1
    20    11    12 1
    21    11    27 1
    22    11    28 1
    23    12    16 ar
    24    13    12 ar
    25    13     3 ar
    26    13    29 1
    27    14    15 ar
    28    14    21 1
    29    15    30 1
    30    16    15 ar
    31    16    31 1
    32    17    33 2
    33    18     4 1
    34    32     2 1
@<TRIPOS>SUBSTRUCTURE
     1 X75         1 TEMP              0 ****  ****    0 ROOT
