@<TRIPOS>MOLECULE
X75
   33    34     1     0     0
SMALL
bcc


@<TRIPOS>ATOM
      1 N01          0.0000     0.0000     0.0000 nu         1 X75      -0.332600
      2 N02          3.1190     0.1190     2.7920 nz         1 X75       0.206600
      3 N03         -4.2110    -1.1330     0.6640 nb         1 X75      -0.552000
      4 N04          5.3380     0.0070    -1.8460 no         1 X75       1.048200
      5 C05          3.6920     0.0000     0.0000 ca         1 X75       0.072000
      6 C06          2.3750     0.0000     0.4670 ca         1 X75      -0.353600
      7 C07          1.3140     0.0000    -0.4510 ca         1 X75       0.182600
      8 C08          1.5830     0.0000    -1.8140 ca         1 X75      -0.209000
      9 C09          2.8900     0.0010    -2.2600 ca         1 X75       0.083400
     10 C10          3.9420     0.0000    -1.3550 ca         1 X75      -0.482200
     11 C12         -1.1030     0.1260    -0.9560 c3         1 X75       0.215100
     12 C13         -2.4150     0.0970    -0.2160 ca         1 X75      -0.286600
     13 C14         -3.0620    -1.1010     0.0160 ca         1 X75       0.443200
     14 C15         -4.7860    -0.0330     1.1120 ca         1 X75       0.414300
     15 C16         -4.1960     1.2030     0.9160 ca         1 X75      -0.206300
     16 C17         -2.9880     1.2760     0.2410 ca         1 X75      -0.035000
     17 O18          0.9600    -0.1090     2.3190 o          1 X75      -0.501100
     18 O19          5.5620     0.0070    -3.0440 o          1 X75      -0.430000
     19 O20          6.2630     0.0110    -1.0540 o          1 X75      -0.430000
     20 Cl21         3.2210     0.0010    -3.9650 cl         1 X75       0.151600
     21 Cl22        -6.2980    -0.1390     1.9570 cl         1 X75      -0.037000
     22 HN01        -0.1940    -0.1210     0.9740 hn         1 X75       0.347800
     23 H102         3.6320     0.9550     2.5970 hn         1 X75       0.248133
     24 H202         3.7190    -0.6750     2.6820 hn         1 X75       0.248133
     25 H05          4.5160    -0.0000     0.7030 ha         1 X75       0.106000
     26 H08          0.7680     0.0010    -2.5270 ha         1 X75       0.156000
     27 H112        -1.0110     1.0620    -1.4930 h1         1 X75       0.038700
     28 H212        -1.0670    -0.6980    -1.6590 h1         1 X75       0.038700
     29 H14         -2.6200    -2.0240    -0.3370 h4         1 X75      -0.014900
     30 H16         -4.6730     2.1030     1.2860 ha         1 X75       0.135000
     31 H17         -2.5030     2.2300     0.0730 ha         1 X75       0.114000
     32 H023         2.7540     0.1610     3.7230 hn         1 X75       0.248133
     33 C11          2.1020    -0.0010     1.9150 c          1 X75       0.372700
@<TRIPOS>BOND
     1     1     7 1   
     2     1    11 1   
     3     1    22 1   
     4     2    23 1   
     5     2    24 1   
     6     2    32 1   
     7     2    33 1   
     8     3    13 ar  
     9     3    14 ar  
    10     4    10 1   
    11     4    18 1   
    12     4    19 1   
    13     5     6 ar  
    14     5    10 ar  
    15     5    25 1   
    16     6     7 ar  
    17     6    33 1   
    18     7     8 ar  
    19     8     9 ar  
    20     8    26 1   
    21     9    10 ar  
    22     9    20 1   
    23    11    12 1   
    24    11    27 1   
    25    11    28 1   
    26    12    13 ar  
    27    12    16 ar  
    28    13    29 1   
    29    14    15 ar  
    30    14    21 1   
    31    15    16 ar  
    32    15    30 1   
    33    16    31 1   
    34    17    33 2   
@<TRIPOS>SUBSTRUCTURE
     1 X75         1 TEMP              0 ****  ****    0 ROOT
