@<TRIPOS>MOLECULE
X76
   31    32     1     0     0
SMALL
bcc


@<TRIPOS>ATOM
      1 N01          0.0000     0.0000     0.0000 nu         1 X76      -0.351600
      2 N02          3.1190     0.1190     2.7930 nz         1 X76       0.212600
      3 N03         -4.2100    -1.1320     0.6660 nb         1 X76      -0.568000
      4 C04          3.6920     0.0000     0.0000 ca         1 X76      -0.049000
      5 C05          2.3760     0.0000     0.4680 ca         1 X76      -0.324600
      6 C06          1.3140    -0.0010    -0.4510 ca         1 X76       0.157600
      7 C07          1.5840    -0.0010    -1.8140 ca         1 X76      -0.191000
      8 C08          2.8910    -0.0010    -2.2600 ca         1 X76       0.036000
      9 C09          3.9410    -0.0010    -1.3550 ca         1 X76      -0.125000
     10 C11         -1.1020     0.1240    -0.9560 c3         1 X76       0.217100
     11 C12         -2.4150     0.0970    -0.2160 ca         1 X76      -0.274600
     12 C13         -3.0620    -1.1010     0.0180 ca         1 X76       0.430200
     13 C14         -4.7850    -0.0330     1.1140 ca         1 X76       0.433200
     14 C15         -4.1960     1.2020     0.9170 ca         1 X76      -0.214300
     15 C16         -2.9880     1.2750     0.2390 ca         1 X76      -0.046000
     16 O17          0.9610    -0.1090     2.3200 o          1 X76      -0.518100
     17 HN01        -0.1940    -0.1230     0.9740 hn         1 X76       0.346800
     18 H102         3.6200     0.9660     2.6100 hn         1 X76       0.241133
     19 H202         2.7790     0.1280     3.7340 hn         1 X76       0.241133
     20 H04          4.5170     0.0000     0.7020 ha         1 X76       0.079000
     21 H07          0.7680    -0.0010    -2.5270 ha         1 X76       0.140000
     22 H08          3.0970    -0.0010    -3.3230 ha         1 X76       0.121000
     23 H09          4.9620    -0.0010    -1.7150 ha         1 X76       0.128000
     24 H111        -1.0660    -0.7010    -1.6580 h1         1 X76       0.034200
     25 H211        -1.0100     1.0590    -1.4940 h1         1 X76       0.034200
     26 H13         -2.6210    -2.0260    -0.3340 h4         1 X76      -0.016900
     27 H14         -5.7280    -0.0990     1.6420 h4         1 X76      -0.008900
     28 H15         -4.6720     2.1010     1.2870 ha         1 X76       0.124000
     29 H16         -2.5030     2.2290     0.0710 ha         1 X76       0.111000
     30 H023         3.7370    -0.6620     2.6940 hn         1 X76       0.241133
     31 C10          2.1030    -0.0000     1.9160 c          1 X76       0.358700
@<TRIPOS>BOND
     1     1     6 1   
     2     1    10 1   
     3     1    17 1   
     4     2    18 1   
     5     2    19 1   
     6     2    30 1   
     7     2    31 1   
     8     3    12 ar  
     9     3    13 ar  
    10     4     5 ar  
    11     4     9 ar  
    12     4    20 1   
    13     5     6 ar  
    14     5    31 1   
    15     6     7 ar  
    16     7     8 ar  
    17     7    21 1   
    18     8     9 ar  
    19     8    22 1   
    20     9    23 1   
    21    10    11 1   
    22    10    24 1   
    23    10    25 1   
    24    11    12 ar  
    25    11    15 ar  
    26    12    26 1   
    27    13    14 ar  
    28    13    27 1   
    29    14    15 ar  
    30    14    28 1   
    31    15    29 1   
    32    16    31 2   
@<TRIPOS>SUBSTRUCTURE
     1 X76         1 TEMP              0 ****  ****    0 ROOT
