@<TRIPOS>MOLECULE
molecule
   31    32     1     0     0
SMALL
bcc


@<TRIPOS>ATOM
      1 N01          0.0000     0.0000     0.0000 nu         1 X76      -0.771600
      2 N02          3.1190     0.1190     2.7930 nz         1 X76      -0.671400
      3 N03         -4.2100    -1.1320     0.6660 nb         1 X76      -0.679000
      4 C04          3.6920     0.0000     0.0000 ca         1 X76      -0.080000
      5 C05          2.3760     0.0000     0.4680 ca         1 X76      -0.306600
      6 C06          1.3140    -0.0010    -0.4510 ca         1 X76       0.295600
      7 C07          1.5840    -0.0010    -1.8140 ca         1 X76      -0.206000
      8 C08          2.8910    -0.0010    -2.2600 ca         1 X76      -0.008000
      9 C09          3.9410    -0.0010    -1.3550 ca         1 X76      -0.157000
     10 C11         -1.1020     0.1240    -0.9560 c3         1 X76       0.273100
     11 C12         -2.4150     0.0970    -0.2160 ca         1 X76      -0.266600
     12 C13         -3.0620    -1.1010     0.0180 ca         1 X76       0.444200
     13 C14         -4.7850    -0.0330     1.1140 ca         1 X76       0.446200
     14 C15         -4.1960     1.2020     0.9170 ca         1 X76      -0.251300
     15 C16         -2.9880     1.2750     0.2390 ca         1 X76      -0.072000
     16 O17          0.9610    -0.1090     2.3200 o          1 X76      -0.485100
     17 HN01        -0.1940    -0.1230     0.9740 hn         1 X76       0.479800
     18 H102         3.6200     0.9660     2.6100 hn         1 X76       0.474133
     19 H202         2.7790     0.1280     3.7340 hn         1 X76       0.474133
     20 H04          4.5170     0.0000     0.7020 ha         1 X76       0.107000
     21 H07          0.7680    -0.0010    -2.5270 ha         1 X76       0.166000
     22 H08          3.0970    -0.0010    -3.3230 ha         1 X76       0.163000
     23 H09          4.9620    -0.0010    -1.7150 ha         1 X76       0.159000
     24 H111        -1.0660    -0.7010    -1.6580 h1         1 X76       0.062200
     25 H211        -1.0100     1.0590    -1.4940 h1         1 X76       0.062200
     26 H13         -2.6210    -2.0260    -0.3340 h4         1 X76       0.027100
     27 H14         -5.7280    -0.0990     1.6420 h4         1 X76       0.039100
     28 H15         -4.6720     2.1010     1.2870 ha         1 X76       0.152000
     29 H16         -2.5030     2.2290     0.0710 ha         1 X76       0.141000
     30 H023         3.7370    -0.6620     2.6940 hn         1 X76       0.474133
     31 C10          2.1030    -0.0000     1.9160 c          1 X76       0.515700
@<TRIPOS>BOND
     1     2    31 1
     2    16    31 2
     3    31     5 1
     4     5     4 ar
     5     5     6 ar
     6     4     9 ar
     7     1     6 1
     8     1    10 1
     9     6     7 ar
    10    10    11 1
    11     9     8 ar
    12    12    11 ar
    13    12     3 ar
    14     7     8 ar
    15    11    15 ar
    16     3    13 ar
    17    15    14 ar
    18    13    14 ar
    19     1    17 1
    20     2    18 1
    21     2    19 1
    22     4    20 1
    23     7    21 1
    24     8    22 1
    25     9    23 1
    26    10    24 1
    27    10    25 1
    28    12    26 1
    29    13    27 1
    30    14    28 1
    31    15    29 1
    32    30     2 1
@<TRIPOS>SUBSTRUCTURE
     1 X76         1 TEMP              0 ****  ****    0 ROOT
