@<TRIPOS>MOLECULE
molecule
   44    46     1     0     0
SMALL
bcc


@<TRIPOS>ATOM
      1 CAN          0.0000     0.0000     0.0000 ca         1 X7E      -0.139000
      2 CAW          1.3850     0.0000     0.0000 ca         1 X7E       0.097900
      3 FAG          2.0610    -0.0000    -1.1700 f          1 X7E      -0.126900
      4 CAV          2.0770     0.0000     1.2010 ca         1 X7E       0.105900
      5 FAF          3.4280    -0.0000     1.2040 f          1 X7E      -0.124900
      6 CAL          1.3820    -0.0000     2.3980 ca         1 X7E      -0.147000
      7 CAJ         -0.0000     0.0000     2.3960 ca         1 X7E      -0.098000
      8 CAU         -0.6910     0.0000     1.1980 ca         1 X7E      -0.103300
      9 CAQ         -2.1970     0.0010     1.1970 c3         1 X7E       0.263600
     10 OAC         -2.6740     0.8610     2.2320 oh         1 X7E      -0.583800
     11 CAS         -2.7000    -1.4010     1.4370 c2         1 X7E      -0.203400
     12 CAP         -3.3670    -2.0530     0.5010 c2         1 X7E       0.036400
     13 CAA         -3.6250    -1.3850    -0.8240 c3         1 X7E      -0.063900
     14 NAZ         -3.8310    -3.3400     0.7160 n          1 X7E      -0.312000
     15 CAB         -4.5630    -4.0030    -0.3670 c3         1 X7E       0.061300
     16 CAR         -3.6470    -4.0100     1.8610 cs         1 X7E       0.607400
     17 SAE         -4.2690    -5.5970     2.0070 s          1 X7E      -0.689400
     18 NAO         -2.9830    -3.4660     2.9010 ns         1 X7E      -0.494900
     19 CAY         -2.4500    -2.1020     2.7550 c3         1 X7E       0.192200
     20 CAX         -3.0460    -1.2560     3.8510 ca         1 X7E      -0.086300
     21 CAM         -2.2370    -0.7470     4.8480 ca         1 X7E      -0.138000
     22 CAK         -4.4020    -0.9870     3.8540 ca         1 X7E      -0.103000
     23 CAH         -4.9530    -0.2100     4.8580 ca         1 X7E      -0.113000
     24 CAI         -4.1490     0.2960     5.8600 ca         1 X7E      -0.149000
     25 CAT         -2.7870     0.0310     5.8560 ca         1 X7E       0.107100
     26 OAD         -1.9930     0.5330     6.8380 oh         1 X7E      -0.522100
     27 HAN         -0.5420     0.0000    -0.9380 ha         1 X7E       0.146000
     28 HAL          1.9210    -0.0000     3.3370 ha         1 X7E       0.156000
     29 HAJ         -0.5430     0.0000     3.3330 ha         1 X7E       0.164000
     30 HAQ         -2.5580     0.3540     0.2390 h1         1 X7E       0.048700
     31 HAC         -2.9940     1.6630     1.8520 ho         1 X7E       0.407000
     32 HAY         -1.3790    -2.1490     2.9070 h1         1 X7E       0.067700
     33 HAA1        -2.6820    -1.1920    -1.3220 hc         1 X7E       0.059033
     34 HAA2        -4.2340    -2.0330    -1.4430 hc         1 X7E       0.059033
     35 HAA3        -4.1450    -0.4480    -0.6610 hc         1 X7E       0.059033
     36 HAB1        -3.9510    -4.0160    -1.2610 h1         1 X7E       0.072367
     37 HAB2        -5.4810    -3.4650    -0.5650 h1         1 X7E       0.072367
     38 HAB3        -4.7960    -5.0200    -0.0750 h1         1 X7E       0.072367
     39 HAO         -2.8560    -3.9780     3.7520 hn         1 X7E       0.378500
     40 HAM         -1.1740    -0.9550     4.8420 ha         1 X7E       0.136000
     41 HAK         -5.0340    -1.3830     3.0680 ha         1 X7E       0.135000
     42 HAH         -6.0160    -0.0020     4.8590 ha         1 X7E       0.135000
     43 HAI         -4.5810     0.9030     6.6460 ha         1 X7E       0.140000
     44 HAD         -2.0370    -0.0280     7.5950 ho         1 X7E       0.419000
@<TRIPOS>BOND
     1     1     2 ar
     2     1     8 ar
     3     2     3 1
     4     2     4 ar
     5     4     5 1
     6     4     6 ar
     7     6     7 ar
     8     7     8 ar
     9     8     9 1
    10     9    10 1
    11     9    11 1
    12    11    12 2
    13    11    19 1
    14    12    13 1
    15    12    14 1
    16    14    15 1
    17    14    16 1
    18    16    17 2
    19    16    18 1
    20    18    19 1
    21    19    20 1
    22    20    21 ar
    23    20    22 ar
    24    21    25 ar
    25    22    23 ar
    26    23    24 ar
    27    24    25 ar
    28    25    26 1
    29     1    27 1
    30     6    28 1
    31     7    29 1
    32     9    30 1
    33    10    31 1
    34    19    32 1
    35    13    33 1
    36    13    34 1
    37    13    35 1
    38    15    36 1
    39    15    37 1
    40    15    38 1
    41    18    39 1
    42    21    40 1
    43    22    41 1
    44    23    42 1
    45    24    43 1
    46    26    44 1
@<TRIPOS>SUBSTRUCTURE
     1 X7E         1 TEMP              0 ****  ****    0 ROOT
