@<TRIPOS>MOLECULE
molecule
   51    55     1     0     0
SMALL
bcc


@<TRIPOS>ATOM
      1 C4           0.0000     0.0000     0.0000 ca         1 X7G       0.637800
      2 C5           1.3950     0.0000     0.0000 ca         1 X7G      -0.432600
      3 C6           2.0550     0.0000     1.2150 ca         1 X7G       0.507200
      4 N1           1.3490    -0.0000     2.3340 nb         1 X7G      -0.803000
      5 N3          -0.6430    -0.0010     1.1610 nb         1 X7G      -0.841000
      6 NBB          1.8430     0.2990     8.4020 na         1 X7G       0.053900
      7 NAQ          0.9760    -0.5090     9.1460 nc         1 X7G      -0.499100
      8 CAH          0.0120    -0.9480     8.3880 cd         1 X7G       0.373800
      9 CAX          0.2210    -0.4150     7.0460 ca         1 X7G      -0.236900
     10 CAI         -0.4700    -0.5360     5.8350 ca         1 X7G      -0.097000
     11 CAY          1.3870     0.3710     7.1090 ca         1 X7G      -0.027200
     12 CAG          1.8420     1.0220     5.9650 ca         1 X7G      -0.142000
     13 CAF          1.1560     0.9010     4.7910 ca         1 X7G      -0.078000
     14 CAS          0.0070     0.1140     4.7140 ca         1 X7G       0.121600
     15 C2           0.0240    -0.0010     2.3040 ca         1 X7G       0.966900
     16 NBC         -0.7070     0.0060    -1.2020 na         1 X7G       0.030600
     17 CAJ         -2.0600     0.0120    -1.3350 cd         1 X7G      -0.069300
     18 NAN         -0.1510     0.0130    -2.4880 nd         1 X7G      -0.506800
     19 CAT         -1.1290     0.0180    -3.3570 cc         1 X7G       0.378600
     20 CAA         -0.9750     0.0270    -4.8560 c3         1 X7G      -0.112400
     21 CAU         -2.3420     0.0170    -2.6580 cc         1 X7G      -0.291600
     22 CAK         -3.7180     0.0210    -3.2710 c3         1 X7G       0.212100
     23 NBA         -4.0690    -1.3400    -3.6960 nq         1 X7G      -0.654600
     24 CAM         -5.2980    -1.3400    -4.5100 cy         1 X7G       0.094800
     25 CAL         -4.8310    -2.0410    -2.6460 cy         1 X7G       0.094800
     26 CAZ         -5.7340    -2.6030    -3.7540 cy         1 X7G       0.107100
     27 OAC         -7.1230    -2.6340    -3.4170 oh         1 X7G      -0.593800
     28 H1           1.9480     0.0010    -0.9310 ha         1 X7G       0.171000
     29 H2           3.1380     0.0000     1.2500 h4         1 X7G       0.035100
     30 H3           3.1650     0.7190     9.9680 h1         1 X7G       0.051033
     31 H4           3.9070     0.6330     8.3650 h1         1 X7G       0.051033
     32 H5           2.9300     2.0380     8.8130 h1         1 X7G       0.051033
     33 H7          -1.3620    -1.1470     5.7740 ha         1 X7G       0.134000
     34 H8           2.7330     1.6370     6.0110 ha         1 X7G       0.133000
     35 H9           1.5200     1.4060     3.9040 ha         1 X7G       0.160000
     36 H11         -2.7820     0.0090    -0.5280 h4         1 X7G       0.187000
     37 H12         -1.3800    -0.8910    -5.2660 hc         1 X7G       0.055033
     38 H13          0.0750     0.1050    -5.1120 hc         1 X7G       0.055033
     39 H14         -1.5110     0.8740    -5.2690 hc         1 X7G       0.055033
     40 H15         -4.4370     0.3680    -2.5400 h1         1 X7G       0.045200
     41 H16         -3.7280     0.6820    -4.1300 h1         1 X7G       0.045200
     42 H18         -5.1080    -1.5220    -5.5610 h1         1 X7G       0.063450
     43 H19         -5.9360    -0.4880    -4.3100 h1         1 X7G       0.063450
     44 H20         -5.3520    -1.3640    -1.9800 h1         1 X7G       0.063450
     45 H21         -4.2520    -2.8070    -2.1440 h1         1 X7G       0.063450
     46 H22         -5.3500    -3.5160    -4.1930 h1         1 X7G       0.070700
     47 H23         -7.4730    -3.4890    -3.6060 ho         1 X7G       0.404000
     48 NAO         -0.6790    -0.0030     3.4980 nu         1 X7G      -0.752300
     49 H6          -0.8000    -1.5930     8.6990 h4         1 X7G       0.060800
     50 CAB          3.0390     0.9650     8.9210 c3         1 X7G       0.073600
     51 H10         -1.6780    -0.0600     3.4900 hn         1 X7G       0.465800
@<TRIPOS>BOND
     1    22    23 1
     2    22    21 1
     3    25    23 1
     4    25    26 1
     5    20    19 1
     6    23    24 1
     7    21    19 1
     8    21    17 2
     9    19    18 2
    10    26    27 1
    11    26    24 1
    12    17    16 1
    13    18    16 1
    14    16     1 1
    15     8     7 2
    16     8     9 1
    17     7     6 1
    18     9    10 ar
    19     9    11 ar
    20     1     5 ar
    21     1     2 ar
    22     6    50 1
    23     6    11 1
    24    10    14 ar
    25     5    15 ar
    26    11    12 ar
    27     2     3 ar
    28    14    48 1
    29    14    13 ar
    30    15    48 1
    31    15     4 ar
    32    12    13 ar
    33     3     4 ar
    34     2    28 1
    35     3    29 1
    36    50    30 1
    37    50    31 1
    38    50    32 1
    39     8    49 1
    40    10    33 1
    41    12    34 1
    42    13    35 1
    43    48    51 1
    44    17    36 1
    45    20    37 1
    46    20    38 1
    47    20    39 1
    48    22    40 1
    49    22    41 1
    50    24    42 1
    51    24    43 1
    52    25    44 1
    53    25    45 1
    54    26    46 1
    55    27    47 1
@<TRIPOS>SUBSTRUCTURE
     1 X7G         1 TEMP              0 ****  ****    0 ROOT
