@<TRIPOS>MOLECULE
molecule
   22    22     1     0     0
SMALL
bcc


@<TRIPOS>ATOM
      1 C1           0.0000     0.0000     0.0000 c          1 X7O       0.894600
      2 C2           1.4980     0.0000     0.0000 c3         1 X7O       0.051500
      3 C3           2.0820     0.0000     1.4070 c3         1 X7O      -0.090700
      4 C4           2.0580    -1.4790     1.7870 c3         1 X7O      -0.122400
      5 C5           2.1080    -2.2420     0.4630 c3         1 X7O       0.323700
      6 C6           3.5050     0.5600     1.4350 c3         1 X7O      -0.093100
      7 O1          -0.4790     1.1460     0.5440 o          1 X7O      -0.806800
      8 N1           1.9320    -1.2570    -0.6160 n7         1 X7O      -0.746200
      9 N2           3.3810    -2.9330     0.2970 nz         1 X7O      -0.826600
     10 O2          -0.7020    -0.9020    -0.4300 o          1 X7O      -0.806800
     11 HC2          1.8790     0.8430    -0.5640 h1         1 X7O       0.085700
     12 HC3          1.4400     0.5640     2.0740 hc         1 X7O       0.129700
     13 HC41         2.9240    -1.7230     2.3920 hc         1 X7O       0.067200
     14 HC42         1.1440    -1.7130     2.3190 hc         1 X7O       0.067200
     15 HC5          1.2960    -2.9590     0.4310 hx         1 X7O       0.142700
     16 HC61         3.4750     1.6310     1.2760 hc         1 X7O       0.029033
     17 HC62         4.0920     0.0950     0.6520 hc         1 X7O       0.029033
     18 HC63         3.9560     0.3510     2.3980 hc         1 X7O       0.029033
     19 HN1          2.8050    -1.1150    -1.0840 hn         1 X7O       0.315800
     20 HN21         3.5020    -3.5930     1.0390 hn         1 X7O       0.441800
     21 HN22         4.1280    -2.2660     0.3180 hn         1 X7O       0.441800
     22 H23          3.3880    -3.4130    -0.5810 hn         1 X7O       0.441800
@<TRIPOS>BOND
     1     1     2 1
     2     1     7 1
     3     1    10 1
     4     2     3 1
     5     2     8 1
     6     2    11 1
     7     3     4 1
     8     3     6 1
     9     3    12 1
    10     4     5 1
    11     4    13 1
    12     4    14 1
    13     5     8 1
    14     5     9 1
    15     5    15 1
    16     6    16 1
    17     6    17 1
    18     6    18 1
    19     8    19 1
    20     9    20 1
    21     9    21 1
    22    22     9 1
@<TRIPOS>SUBSTRUCTURE
     1 X7O         1 TEMP              0 ****  ****    0 ROOT
