@<TRIPOS>MOLECULE
molecule
  121   120     1     0     0
SMALL
bcc


@<TRIPOS>ATOM
      1 O1           0.0000     0.0000     0.0000 o          1 X81      -0.873167
      2 O2           2.0600     1.2640    -0.7250 o          1 X81      -0.873167
      3 P1           1.5440     0.0000     0.0000 p5         1 X81       1.152900
      4 O3           2.0820     0.0000     1.5180 o          1 X81      -0.873167
      5 O4           2.0820    -1.3150    -0.7600 os         1 X81      -0.523200
      6 C1           1.4800    -1.3180    -2.0550 c3         1 X81       0.143400
      7 C2           1.9500    -2.5480    -2.8330 c3         1 X81       0.146100
      8 C3           3.4800    -2.5730    -2.8710 c3         1 X81       0.172400
      9 O5           3.9990    -2.5110    -1.5160 os         1 X81      -0.334900
     10 C4           5.3240    -2.5200    -1.3040 c          1 X81       0.646100
     11 O6           6.0850    -2.5790    -2.2400 o          1 X81      -0.624000
     12 C5           5.8620    -2.4560     0.1020 c3         1 X81      -0.126400
     13 C6           7.3920    -2.4810     0.0650 c3         1 X81      -0.071400
     14 C7           7.9380    -2.4160     1.4930 c3         1 X81      -0.084400
     15 C8           9.4670    -2.4410     1.4550 c3         1 X81      -0.080400
     16 C9          10.0140    -2.3750     2.8820 c3         1 X81      -0.082400
     17 C10         11.5440    -2.4000     2.8450 c3         1 X81      -0.082400
     18 C11         12.0900    -2.3360     4.2720 c3         1 X81      -0.082400
     19 C12         13.6190    -2.3600     4.2340 c3         1 X81      -0.082400
     20 C13         14.1660    -2.2950     5.6620 c3         1 X81      -0.082400
     21 C14         15.6950    -2.3200     5.6240 c3         1 X81      -0.082400
     22 C15         16.2410    -2.2540     7.0510 c3         1 X81      -0.082400
     23 C16         17.7710    -2.2790     7.0140 c3         1 X81      -0.082400
     24 C17         18.3180    -2.2140     8.4420 c3         1 X81      -0.082400
     25 C18         19.8460    -2.2400     8.4040 c3         1 X81      -0.082400
     26 C19         20.3930    -2.1740     9.8320 c3         1 X81      -0.082400
     27 C20         21.9230    -2.1980     9.7940 c3         1 X81      -0.084400
     28 C21         22.4690    -2.1340    11.2220 c3         1 X81      -0.092100
     29 O7           1.4630    -3.7500    -2.1800 os         1 X81      -0.406900
     30 C22          0.2730    -4.2660    -2.5260 c          1 X81       0.643100
     31 O8          -0.3930    -3.7290    -3.3800 o          1 X81      -0.579000
     32 C23         -0.2330    -5.5130    -1.8480 c3         1 X81      -0.126400
     33 C24         -1.6020    -5.8850    -2.4210 c3         1 X81      -0.071400
     34 C25         -2.1150    -7.1520    -1.7330 c3         1 X81      -0.085400
     35 C26         -3.4840    -7.5240    -2.3070 c3         1 X81      -0.078400
     36 C27         -3.9980    -8.7900    -1.6180 c3         1 X81      -0.091400
     37 C28         -5.3660    -9.1630    -2.1920 c3         1 X81      -0.094400
     38 C29         -5.8800   -10.4290    -1.5040 c3         1 X81       0.060800
     39 C30         -7.2270   -10.7970    -2.0690 c2         1 X81      -0.241200
     40 C31         -7.4410   -12.0080    -2.5200 c2         1 X81      -0.274200
     41 C32         -6.4020   -13.0800    -2.3200 c3         1 X81       0.063800
     42 C33         -7.0440   -14.2940    -1.6470 c3         1 X81      -0.095400
     43 C34         -5.9870   -15.3830    -1.4440 c3         1 X81      -0.091400
     44 C35         -6.6300   -16.5970    -0.7700 c3         1 X81      -0.080400
     45 C36         -5.5740   -17.6860    -0.5680 c3         1 X81      -0.083400
     46 C37         -6.2160   -18.9000     0.1050 c3         1 X81      -0.081400
     47 C38         -5.1600   -19.9890     0.3080 c3         1 X81      -0.084400
     48 C39         -5.8020   -21.2030     0.9820 c3         1 X81      -0.092100
     49 H2           0.4020    -1.3460    -1.9530 h1         1 X81       0.058700
     50 H3           1.7690    -0.4210    -2.5900 h1         1 X81       0.058700
     51 H4           1.5650    -2.5050    -3.8450 h1         1 X81       0.047700
     52 H5           3.8410    -1.7220    -3.4350 h1         1 X81       0.033700
     53 H6           3.8150    -3.4880    -3.3440 h1         1 X81       0.033700
     54 H7           5.5010    -3.3070     0.6660 hc         1 X81       0.090700
     55 H8           5.5270    -1.5410     0.5760 hc         1 X81       0.090700
     56 H9           7.7260    -3.3960    -0.4090 hc         1 X81       0.045200
     57 H10          7.7530    -1.6290    -0.4990 hc         1 X81       0.045200
     58 H11          7.6030    -1.5010     1.9660 hc         1 X81       0.046700
     59 H12          7.5760    -3.2680     2.0560 hc         1 X81       0.046700
     60 H13          9.8280    -1.5900     0.8900 hc         1 X81       0.036200
     61 H14          9.8020    -3.3560     0.9820 hc         1 X81       0.036200
     62 H15          9.6530    -3.2260     3.4460 hc         1 X81       0.042700
     63 H16          9.6800    -1.4600     3.3550 hc         1 X81       0.042700
     64 H17         11.9050    -1.5480     2.2810 hc         1 X81       0.037200
     65 H18         11.8790    -3.3150     2.3710 hc         1 X81       0.037200
     66 H19         11.7300    -3.1880     4.8350 hc         1 X81       0.041700
     67 H20         11.7550    -1.4210     4.7460 hc         1 X81       0.041700
     68 H54         13.9550    -3.2740     3.7600 hc         1 X81       0.038700
     69 H21         13.9800    -1.5080     3.6700 hc         1 X81       0.038700
     70 H56         13.8310    -1.3800     6.1350 hc         1 X81       0.041200
     71 H22         13.8040    -3.1470     6.2250 hc         1 X81       0.041200
     72 H23         16.0300    -3.2350     5.1510 hc         1 X81       0.039700
     73 H24         16.0560    -1.4690     5.0600 hc         1 X81       0.039700
     74 H25         15.9060    -1.3390     7.5240 hc         1 X81       0.041200
     75 H26         15.8800    -3.1060     7.6160 hc         1 X81       0.041200
     76 H27         18.1320    -1.4280     6.4500 hc         1 X81       0.040200
     77 H28         18.1050    -3.1940     6.5400 hc         1 X81       0.040200
     78 H29         17.9830    -1.2990     8.9150 hc         1 X81       0.041200
     79 H30         17.9560    -3.0650     9.0060 hc         1 X81       0.041200
     80 H31         20.2080    -1.3890     7.8390 hc         1 X81       0.040200
     81 H32         20.1810    -3.1550     7.9310 hc         1 X81       0.040200
     82 H33         20.0320    -3.0250    10.3960 hc         1 X81       0.041200
     83 H34         20.0580    -1.2580    10.3040 hc         1 X81       0.041200
     84 H35         22.2840    -1.3470     9.2300 hc         1 X81       0.039200
     85 H36         22.2570    -3.1130     9.3200 hc         1 X81       0.039200
     86 H37         22.1080    -2.9860    11.7850 hc         1 X81       0.031033
     87 H38         22.1340    -1.2190    11.6950 hc         1 X81       0.031033
     88 H39         23.5520    -2.1510    11.1950 hc         1 X81       0.031033
     89 H40         -0.3240    -5.3330    -0.7830 hc         1 X81       0.067200
     90 H41          0.4640    -6.3250    -2.0190 hc         1 X81       0.067200
     91 H42         -2.2980    -5.0740    -2.2490 hc         1 X81       0.057200
     92 H43         -1.5110    -6.0640    -3.4860 hc         1 X81       0.057200
     93 H44         -2.2060    -6.9730    -0.6690 hc         1 X81       0.036700
     94 H45         -1.4180    -7.9640    -1.9050 hc         1 X81       0.036700
     95 H46         -3.3930    -7.7040    -3.3710 hc         1 X81       0.043700
     96 H47         -4.1800    -6.7120    -2.1360 hc         1 X81       0.043700
     97 H48         -4.0890    -8.6110    -0.5540 hc         1 X81       0.035200
     98 H49         -3.3010    -9.6020    -1.7890 hc         1 X81       0.035200
     99 H50         -5.2740    -9.3430    -3.2570 hc         1 X81       0.052700
    100 H51         -6.0630    -8.3510    -2.0220 hc         1 X81       0.052700
    101 H52         -5.1830   -11.2410    -1.6740 hc         1 X81       0.036700
    102 H53         -5.9710   -10.2500    -0.4390 hc         1 X81       0.036700
    103 H55         -6.9770   -11.0150    -1.0380 ha         1 X81       0.061000
    104 H57         -6.6080   -12.1110    -3.2050 ha         1 X81       0.060000
    105 H58         -5.6050   -12.6990    -1.6930 hc         1 X81       0.035200
    106 H59         -5.9950   -13.3730    -3.2810 hc         1 X81       0.035200
    107 H60         -7.8400   -14.6760    -2.2750 hc         1 X81       0.049700
    108 H61         -7.4500   -14.0020    -0.6860 hc         1 X81       0.049700
    109 H62         -5.1900   -15.0020    -0.8170 hc         1 X81       0.038200
    110 H63         -5.5820   -15.6760    -2.4050 hc         1 X81       0.038200
    111 H64         -7.4270   -16.9780    -1.3970 hc         1 X81       0.040700
    112 H65         -7.0350   -16.3040     0.1910 hc         1 X81       0.040700
    113 H66         -5.1690   -17.9780    -1.5290 hc         1 X81       0.040700
    114 H67         -4.7770   -17.3040     0.0590 hc         1 X81       0.040700
    115 H68         -6.6220   -18.6080     1.0660 hc         1 X81       0.039700
    116 H69         -7.0120   -19.2820    -0.5220 hc         1 X81       0.039700
    117 H70         -4.3630   -19.6070     0.9340 hc         1 X81       0.039700
    118 H71         -4.7540   -20.2820    -0.6530 hc         1 X81       0.039700
    119 H72         -5.0540   -21.9740     1.1250 hc         1 X81       0.030700
    120 H73         -6.2070   -20.9100     1.9430 hc         1 X81       0.030700
    121 H74         -6.5990   -21.5850     0.3550 hc         1 X81       0.030700
@<TRIPOS>BOND
     1     1     3 1
     2     2     3 1
     3     3     4 1
     4     3     5 1
     5     5     6 1
     6     6     7 1
     7     6    49 1
     8     6    50 1
     9     7     8 1
    10     7    29 1
    11     7    51 1
    12     8     9 1
    13     8    52 1
    14     8    53 1
    15     9    10 1
    16    10    11 2
    17    10    12 1
    18    12    13 1
    19    12    54 1
    20    12    55 1
    21    13    14 1
    22    13    56 1
    23    13    57 1
    24    14    15 1
    25    14    58 1
    26    14    59 1
    27    15    16 1
    28    15    60 1
    29    15    61 1
    30    16    17 1
    31    16    62 1
    32    16    63 1
    33    17    18 1
    34    17    64 1
    35    17    65 1
    36    18    19 1
    37    18    66 1
    38    18    67 1
    39    19    20 1
    40    19    68 1
    41    19    69 1
    42    20    21 1
    43    20    70 1
    44    20    71 1
    45    21    22 1
    46    21    72 1
    47    21    73 1
    48    22    23 1
    49    22    74 1
    50    22    75 1
    51    23    24 1
    52    23    76 1
    53    23    77 1
    54    24    25 1
    55    24    78 1
    56    24    79 1
    57    25    26 1
    58    25    80 1
    59    25    81 1
    60    26    27 1
    61    26    82 1
    62    26    83 1
    63    27    28 1
    64    27    84 1
    65    27    85 1
    66    28    86 1
    67    28    87 1
    68    28    88 1
    69    29    30 1
    70    30    31 2
    71    30    32 1
    72    32    33 1
    73    32    89 1
    74    32    90 1
    75    33    34 1
    76    33    91 1
    77    33    92 1
    78    34    35 1
    79    34    93 1
    80    34    94 1
    81    35    36 1
    82    35    95 1
    83    35    96 1
    84    36    37 1
    85    36    97 1
    86    36    98 1
    87    37    38 1
    88    37    99 1
    89    37   100 1
    90    38    39 1
    91    38   101 1
    92    38   102 1
    93    39    40 2
    94    39   103 1
    95    40    41 1
    96    40   104 1
    97    41    42 1
    98    41   105 1
    99    41   106 1
   100    42    43 1
   101    42   107 1
   102    42   108 1
   103    43    44 1
   104    43   109 1
   105    43   110 1
   106    44    45 1
   107    44   111 1
   108    44   112 1
   109    45    46 1
   110    45   113 1
   111    45   114 1
   112    46    47 1
   113    46   115 1
   114    46   116 1
   115    47    48 1
   116    47   117 1
   117    47   118 1
   118    48   119 1
   119    48   120 1
   120    48   121 1
@<TRIPOS>SUBSTRUCTURE
     1 X81         1 TEMP              0 ****  ****    0 ROOT
