@<TRIPOS>MOLECULE
X81
  121   120     1     0     0
SMALL
bcc


@<TRIPOS>ATOM
      1 O1         -2.3520   -1.4310    0.2020 o         1 X81     -0.840500
      2 O2         -0.5020   -2.3240    1.8460 o         1 X81     -0.840500
      3 P1         -1.0600   -2.0790    0.4990 p5        1 X81      1.431800
      4 O3         -0.9920   -3.5350   -0.2460 oh        1 X81     -0.791400
      5 O4          0.1140   -1.3240   -0.3870 os        1 X81     -0.591200
      6 C1          1.4300   -1.7540   -0.2280 c3        1 X81      0.189400
      7 C2          1.9660   -2.2980   -1.5630 c3        1 X81      0.118100
      8 C3          3.4680   -2.1000   -1.7620 c3        1 X81      0.143400
      9 O5          4.1830   -2.7540   -0.7300 os        1 X81     -0.477900
     10 C4          5.5940   -2.7250   -0.8550 c2        1 X81      0.430100
     11 O6          6.0020   -2.0420   -1.8360 o         1 X81     -0.574000
     12 C5          6.2570   -3.4500    0.1180 c2        1 X81     -0.599200
     13 C6          7.7170   -3.5340    0.1480 c3        1 X81      0.076800
     14 C7          8.2930   -3.0250    1.4640 c3        1 X81     -0.084400
     15 C8          9.8010   -3.1600    1.5050 c3        1 X81     -0.078400
     16 C9         10.3710   -2.6610    2.8160 c3        1 X81     -0.079400
     17 C10        11.8780   -2.8030    2.8580 c3        1 X81     -0.078400
     18 C11        12.4440   -2.3110    4.1730 c3        1 X81     -0.079400
     19 C12        13.9500   -2.4580    4.2160 c3        1 X81     -0.078400
     20 C13        14.5140   -1.9700    5.5340 c3        1 X81     -0.079400
     21 C14        16.0200   -2.1220    5.5780 c3        1 X81     -0.078400
     22 C15        16.5830   -1.6380    6.8970 c3        1 X81     -0.079400
     23 C16        18.0880   -1.7920    6.9420 c3        1 X81     -0.078400
     24 C17        18.6520   -1.3090    8.2610 c3        1 X81     -0.079400
     25 C18        20.1570   -1.4640    8.3070 c3        1 X81     -0.079400
     26 C19        20.7200   -0.9810    9.6260 c3        1 X81     -0.079400
     27 C20        22.2250   -1.1360    9.6730 c3        1 X81     -0.080400
     28 C21        22.7910   -0.6550   10.9850 c3        1 X81     -0.092100
     29 O7          1.6400   -3.7070   -1.5580 os        1 X81     -0.410900
     30 C22         1.4080   -4.3240   -2.7400 c         1 X81      0.647100
     31 O8          1.5380   -3.7200   -3.8110 o         1 X81     -0.583000
     32 C23         0.9900   -5.7580   -2.5620 c3        1 X81     -0.126400
     33 C24        -0.5210   -5.8630   -2.6100 c3        1 X81     -0.097400
     34 C25        -0.9700   -7.2870   -2.3600 c3        1 X81     -0.070400
     35 C26        -2.4810   -7.3880   -2.3770 c3        1 X81     -0.082400
     36 C27        -2.9400   -8.8020   -2.0970 c3        1 X81     -0.077400
     37 C28        -4.4500   -8.9040   -2.1200 c3        1 X81     -0.078400
     38 C29        -4.9080  -10.3190   -1.8300 c3        1 X81     -0.053200
     39 C30        -6.3830  -10.4540   -1.8590 c2        1 X81     -0.152200
     40 C31        -7.0270  -11.6220   -1.7520 c2        1 X81     -0.198200
     41 C32        -6.3400  -12.9260   -1.5990 c3        1 X81     -0.045200
     42 C33        -7.3130  -14.0640   -1.3720 c3        1 X81     -0.075400
     43 C34        -6.5840  -15.3810   -1.2100 c3        1 X81     -0.080400
     44 C35        -7.5530  -16.5220   -0.9830 c3        1 X81     -0.078400
     45 C36        -6.8240  -17.8380   -0.8180 c3        1 X81     -0.079400
     46 C37        -7.7920  -18.9790   -0.5900 c3        1 X81     -0.078400
     47 C38        -7.0630  -20.2950   -0.4220 c3        1 X81     -0.080400
     48 C39        -8.0220  -21.4350   -0.1960 c3        1 X81     -0.091100
     49 H2          2.0670   -0.8690    0.0520 h1        1 X81      0.051700
     50 H3          1.5030   -2.5340    0.5790 h1        1 X81      0.051700
     51 H4          1.4270   -1.8020   -2.4180 h1        1 X81      0.070700
     52 H5          3.6990   -1.0020   -1.7480 h1        1 X81      0.032700
     53 H6          3.7700   -2.5200   -2.7590 h1        1 X81      0.032700
     54 H7          5.6910   -3.9770    0.8850 ha        1 X81      0.100000
     55 H8         -0.1660   -3.9810   -0.0880 ho        1 X81      0.429000
     56 H9          8.1620   -2.9430   -0.6980 hc        1 X81     -0.008800
     57 H10         8.0610   -4.6020    0.0190 hc        1 X81     -0.008800
     58 H11         7.8420   -3.5990    2.3140 hc        1 X81      0.028700
     59 H12         8.0060   -1.9510    1.5990 hc        1 X81      0.028700
     60 H13        10.0870   -4.2350    1.3580 hc        1 X81      0.025700
     61 H14        10.2510   -2.5800    0.6560 hc        1 X81      0.025700
     62 H15         9.9160   -3.2370    3.6650 hc        1 X81      0.034700
     63 H16        10.0900   -1.5850    2.9600 hc        1 X81      0.034700
     64 H17        12.1580   -3.8780    2.7080 hc        1 X81      0.033200
     65 H18        12.3320   -2.2220    2.0120 hc        1 X81      0.033200
     66 H19        11.9850   -2.8880    5.0180 hc        1 X81      0.037700
     67 H20        12.1660   -1.2340    4.3210 hc        1 X81      0.037700
     68 H54        14.4080   -1.8770    3.3730 hc        1 X81      0.036200
     69 H21        14.2260   -3.5340    4.0640 hc        1 X81      0.036200
     70 H56        14.2400   -0.8930    5.6840 hc        1 X81      0.038200
     71 H22        14.0530   -2.5490    6.3770 hc        1 X81      0.038200
     72 H23        16.4810   -1.5420    4.7360 hc        1 X81      0.037200
     73 H24        16.2930   -3.1990    5.4250 hc        1 X81      0.037200
     74 H25        16.3110   -0.5600    7.0480 hc        1 X81      0.038700
     75 H26        16.1200   -2.2170    7.7390 hc        1 X81      0.038700
     76 H27        18.3600   -2.8700    6.7890 hc        1 X81      0.038200
     77 H28        18.5510   -1.2120    6.1000 hc        1 X81      0.038200
     78 H29        18.1880   -1.8880    9.1030 hc        1 X81      0.039200
     79 H30        18.3800   -0.2310    8.4140 hc        1 X81      0.039200
     80 H31        20.6200   -0.8850    7.4650 hc        1 X81      0.038700
     81 H32        20.4280   -2.5420    8.1550 hc        1 X81      0.038700
     82 H33        20.4490    0.0970    9.7780 hc        1 X81      0.039200
     83 H34        20.2560   -1.5600   10.4680 hc        1 X81      0.039200
     84 H35        22.4940   -2.2140    9.5190 hc        1 X81      0.037700
     85 H36        22.6860   -0.5570    8.8290 hc        1 X81      0.037700
     86 H37        22.3610   -1.2370   11.8360 hc        1 X81      0.030367
     87 H38        22.5530    0.4240   11.1440 hc        1 X81      0.030367
     88 H39        23.9010   -0.7780   10.9980 hc        1 X81      0.030367
     89 H40         1.3720   -6.1340   -1.5770 hc        1 X81      0.061700
     90 H41         1.4560   -6.3630   -3.3810 hc        1 X81      0.061700
     91 H42        -0.9670   -5.1760   -1.8350 hc        1 X81      0.077700
     92 H43        -0.8890   -5.5190   -3.6120 hc        1 X81      0.077700
     93 H44        -0.5830   -7.6320   -1.3650 hc        1 X81      0.029200
     94 H45        -0.5360   -7.9670   -3.1390 hc        1 X81      0.029200
     95 H46        -2.8680   -7.0560   -3.3760 hc        1 X81      0.049700
     96 H47        -2.9080   -6.6900   -1.6080 hc        1 X81      0.049700
     97 H48        -2.5570   -9.1290   -1.0950 hc        1 X81      0.032700
     98 H49        -2.5050   -9.4990   -2.8610 hc        1 X81      0.032700
     99 H50        -4.8840   -8.2030   -1.3580 hc        1 X81      0.044200
    100 H51        -4.8350   -8.5820   -3.1230 hc        1 X81      0.044200
    101 H52        -4.5280  -10.6360   -0.8190 hc        1 X81      0.046200
    102 H53        -4.4520  -11.0230   -2.5800 hc        1 X81      0.046200
    103 H55        -6.9500   -9.5140   -1.9720 ha        1 X81      0.125000
    104 H57        -8.1280  -11.6550   -1.7760 ha        1 X81      0.114000
    105 H58        -5.7260  -13.1340   -2.5180 hc        1 X81      0.047200
    106 H59        -5.6190  -12.8700   -0.7370 hc        1 X81      0.047200
    107 H60        -7.9260  -13.8580   -0.4550 hc        1 X81      0.038200
    108 H61        -8.0240  -14.1310   -2.2370 hc        1 X81      0.038200
    109 H62        -5.8740  -15.3140   -0.3450 hc        1 X81      0.040700
    110 H63        -5.9700  -15.5860   -2.1270 hc        1 X81      0.040700
    111 H64        -8.2620  -16.5910   -1.8500 hc        1 X81      0.037700
    112 H65        -8.1690  -16.3150   -0.0680 hc        1 X81      0.037700
    113 H66        -6.2080  -18.0440   -1.7320 hc        1 X81      0.040200
    114 H67        -6.1150  -17.7680    0.0490 hc        1 X81      0.040200
    115 H68        -8.4090  -18.7720    0.3230 hc        1 X81      0.037700
    116 H69        -8.5000  -19.0500   -1.4580 hc        1 X81      0.037700
    117 H70        -6.3550  -20.2210    0.4460 hc        1 X81      0.039200
    118 H71        -6.4440  -20.4990   -1.3350 hc        1 X81      0.039200
    119 H72        -8.6310  -21.2610    0.7240 hc        1 X81      0.029700
    120 H73        -7.4650  -22.3940   -0.0740 hc        1 X81      0.029700
    121 H74        -8.7200  -21.5400   -1.0620 hc        1 X81      0.029700
@<TRIPOS>BOND
     1    1    3 1   
     2    2    3 1   
     3    3    4 1   
     4    3    5 1   
     5    4   55 1   
     6    5    6 1   
     7    6    7 1   
     8    6   49 1   
     9    6   50 1   
    10    7    8 1   
    11    7   29 1   
    12    7   51 1   
    13    8    9 1   
    14    8   52 1   
    15    8   53 1   
    16    9   10 1   
    17   10   11 1   
    18   10   12 2   
    19   12   13 1   
    20   12   54 1   
    21   13   14 1   
    22   13   56 1   
    23   13   57 1   
    24   14   15 1   
    25   14   58 1   
    26   14   59 1   
    27   15   16 1   
    28   15   60 1   
    29   15   61 1   
    30   16   17 1   
    31   16   62 1   
    32   16   63 1   
    33   17   18 1   
    34   17   64 1   
    35   17   65 1   
    36   18   19 1   
    37   18   66 1   
    38   18   67 1   
    39   19   20 1   
    40   19   68 1   
    41   19   69 1   
    42   20   21 1   
    43   20   70 1   
    44   20   71 1   
    45   21   22 1   
    46   21   72 1   
    47   21   73 1   
    48   22   23 1   
    49   22   74 1   
    50   22   75 1   
    51   23   24 1   
    52   23   76 1   
    53   23   77 1   
    54   24   25 1   
    55   24   78 1   
    56   24   79 1   
    57   25   26 1   
    58   25   80 1   
    59   25   81 1   
    60   26   27 1   
    61   26   82 1   
    62   26   83 1   
    63   27   28 1   
    64   27   84 1   
    65   27   85 1   
    66   28   86 1   
    67   28   87 1   
    68   28   88 1   
    69   29   30 1   
    70   30   31 2   
    71   30   32 1   
    72   32   33 1   
    73   32   89 1   
    74   32   90 1   
    75   33   34 1   
    76   33   91 1   
    77   33   92 1   
    78   34   35 1   
    79   34   93 1   
    80   34   94 1   
    81   35   36 1   
    82   35   95 1   
    83   35   96 1   
    84   36   37 1   
    85   36   97 1   
    86   36   98 1   
    87   37   38 1   
    88   37   99 1   
    89   37  100 1   
    90   38   39 1   
    91   38  101 1   
    92   38  102 1   
    93   39   40 2   
    94   39  103 1   
    95   40   41 1   
    96   40  104 1   
    97   41   42 1   
    98   41  105 1   
    99   41  106 1   
   100   42   43 1   
   101   42  107 1   
   102   42  108 1   
   103   43   44 1   
   104   43  109 1   
   105   43  110 1   
   106   44   45 1   
   107   44  111 1   
   108   44  112 1   
   109   45   46 1   
   110   45  113 1   
   111   45  114 1   
   112   46   47 1   
   113   46  115 1   
   114   46  116 1   
   115   47   48 1   
   116   47  117 1   
   117   47  118 1   
   118   48  119 1   
   119   48  120 1   
   120   48  121 1   
@<TRIPOS>SUBSTRUCTURE
     1 X81         1 TEMP              0 ****  ****    0 ROOT
