@<TRIPOS>MOLECULE
molecule
   45    46     1     0     0
SMALL
bcc


@<TRIPOS>ATOM
      1 N01          0.0000     0.0000     0.0000 nu         1 X84      -0.765600
      2 N02          3.1210    -0.1240     2.7900 nz         1 X84      -0.674400
      3 N03         -4.1280     1.2640     0.9110 nb         1 X84      -0.678000
      4 N04          3.1680    -0.0020    -3.6210 nu         1 X84      -0.752600
      5 N05          5.3470     0.0060    -1.8260 no         1 X84       0.293200
      6 C06          3.6960     0.0000     0.0000 ca         1 X84       0.024000
      7 C07          2.3770     0.0000     0.4670 ca         1 X84      -0.352600
      8 C08          1.3130    -0.0000    -0.4520 ca         1 X84       0.339600
      9 C09          1.5820    -0.0000    -1.8120 ca         1 X84      -0.318000
     10 C10          2.8970    -0.0010    -2.2560 ca         1 X84       0.322600
     11 C11          3.9490    -0.0000    -1.3400 ca         1 X84      -0.243200
     12 C13         -1.1030     0.1460    -0.9520 c3         1 X84       0.275100
     13 C14         -2.4150     0.1130    -0.2110 ca         1 X84      -0.269600
     14 C15         -2.9790     1.2830     0.2620 ca         1 X84       0.445200
     15 C16         -4.7790     0.1380     1.1340 ca         1 X84       0.446200
     16 C17         -4.2750    -1.0700     0.6900 ca         1 X84      -0.250300
     17 C18         -3.0710    -1.0890     0.0040 ca         1 X84      -0.073000
     18 C19          2.0720     0.1280    -4.5850 c3         1 X84       0.216800
     19 C20          2.6360     0.0980    -6.0050 c3         1 X84      -0.100400
     20 C21          1.4910     0.2340    -7.0120 c3         1 X84       0.149400
     21 O22          0.9630     0.1120     2.3170 o          1 X84      -0.484100
     22 O23          2.0190     0.2060    -8.3400 oh         1 X84      -0.600800
     23 O24          6.2010    -0.6290    -1.2340 o          1 X84      -0.185500
     24 O25          5.6450     0.6470    -2.8180 o          1 X84      -0.185500
     25 HN01        -0.1930    -0.1200     0.9750 hn         1 X84       0.479800
     26 H102         3.6240    -0.9680     2.6010 hn         1 X84       0.475800
     27 H202         2.7830    -0.1400     3.7320 hn         1 X84       0.475800
     28 HN04         4.1060    -0.1290    -3.9440 hn         1 X84       0.481800
     29 H06          4.5190     0.0000     0.7050 ha         1 X84       0.132000
     30 H09          0.7700    -0.0760    -2.5240 ha         1 X84       0.174000
     31 H113        -1.0730    -0.6680    -1.6670 h1         1 X84       0.061700
     32 H213        -1.0070     1.0900    -1.4750 h1         1 X84       0.061700
     33 H15         -2.4730     2.2260     0.0980 h4         1 X84       0.027100
     34 H16         -5.7190     0.1610     1.6710 h4         1 X84       0.039100
     35 H17         -4.8150    -1.9910     0.8760 ha         1 X84       0.153000
     36 H18         -2.6520    -2.0210    -0.3560 ha         1 X84       0.141000
     37 H119         1.5560     1.0660    -4.4210 h1         1 X84       0.053700
     38 H219         1.3770    -0.6940    -4.4550 h1         1 X84       0.053700
     39 H120         3.1520    -0.8410    -6.1690 hc         1 X84       0.073200
     40 H220         3.3310     0.9190    -6.1350 hc         1 X84       0.073200
     41 H121         0.7970    -0.5880    -6.8820 h1         1 X84       0.023200
     42 H221         0.9750     1.1720    -6.8480 h1         1 X84       0.023200
     43 HO23         1.3150     0.2940    -8.9610 ho         1 X84       0.416000
     44 H023         3.7370     0.6600     2.6950 hn         1 X84       0.475800
     45 C12          2.1050     0.0000     1.9130 c          1 X84       0.524700
@<TRIPOS>BOND
     1     1     8 1
     2     1    12 1
     3     1    25 1
     4     2    45 1
     5     2    26 1
     6     2    27 1
     7     4    18 1
     8     4    28 1
     9     5    23 1
    10     6    11 ar
    11     6    29 1
    12     7     6 ar
    13     7     8 ar
    14     8     9 ar
    15     9    10 ar
    16     9    30 1
    17    10     4 1
    18    11     5 1
    19    11    10 ar
    20    45     7 1
    21    12    13 1
    22    12    31 1
    23    12    32 1
    24    13    14 ar
    25    14     3 ar
    26    14    33 1
    27    15     3 ar
    28    15    34 1
    29    16    15 ar
    30    16    35 1
    31    17    13 ar
    32    17    16 ar
    33    17    36 1
    34    18    19 1
    35    18    37 1
    36    18    38 1
    37    19    20 1
    38    19    39 1
    39    19    40 1
    40    20    22 1
    41    20    41 1
    42    20    42 1
    43    21    45 2
    44    22    43 1
    45    24     5 1
    46    44     2 1
@<TRIPOS>SUBSTRUCTURE
     1 X84         1 TEMP              0 ****  ****    0 ROOT
