@<TRIPOS>MOLECULE
X84
   45    46     1     0     0
SMALL
bcc


@<TRIPOS>ATOM
      1 N01          0.0000     0.0000     0.0000 nu         1 X84      -0.353600
      2 N02          3.1210    -0.1240     2.7900 nz         1 X84       0.208600
      3 N03         -4.1280     1.2640     0.9110 nb         1 X84      -0.568000
      4 N04          3.1680    -0.0020    -3.6210 nu         1 X84      -0.329600
      5 N05          5.3470     0.0060    -1.8260 no         1 X84       1.047200
      6 C06          3.6960     0.0000     0.0000 ca         1 X84       0.100000
      7 C07          2.3770     0.0000     0.4670 ca         1 X84      -0.382600
      8 C08          1.3130    -0.0000    -0.4520 ca         1 X84       0.214600
      9 C09          1.5820    -0.0000    -1.8120 ca         1 X84      -0.329000
     10 C10          2.8970    -0.0010    -2.2560 ca         1 X84       0.196600
     11 C11          3.9490    -0.0000    -1.3400 ca         1 X84      -0.527200
     12 C13         -1.1030     0.1460    -0.9520 c3         1 X84       0.221100
     13 C14         -2.4150     0.1130    -0.2110 ca         1 X84      -0.276600
     14 C15         -2.9790     1.2830     0.2620 ca         1 X84       0.431200
     15 C16         -4.7790     0.1380     1.1340 ca         1 X84       0.434200
     16 C17         -4.2750    -1.0700     0.6900 ca         1 X84      -0.213300
     17 C18         -3.0710    -1.0890     0.0040 ca         1 X84      -0.048000
     18 C19          2.0720     0.1280    -4.5850 c3         1 X84       0.146800
     19 C20          2.6360     0.0980    -6.0050 c3         1 X84      -0.050400
     20 C21          1.4910     0.2340    -7.0120 c3         1 X84       0.237400
     21 O22          0.9630     0.1120     2.3170 o          1 X84      -0.516100
     22 O23          2.0190     0.2060    -8.3400 oh         1 X84      -0.584800
     23 O24          6.2010    -0.6290    -1.2340 o          1 X84      -0.432000
     24 O25          5.6450     0.6470    -2.8180 o          1 X84      -0.432000
     25 HN01        -0.1930    -0.1200     0.9750 hn         1 X84       0.344800
     26 H102         3.6240    -0.9680     2.6010 hn         1 X84       0.242467
     27 H202         2.7830    -0.1400     3.7320 hn         1 X84       0.242467
     28 HN04         4.1060    -0.1290    -3.9440 hn         1 X84       0.333800
     29 H06          4.5190     0.0000     0.7050 ha         1 X84       0.091000
     30 H09          0.7700    -0.0760    -2.5240 ha         1 X84       0.157000
     31 H113        -1.0730    -0.6680    -1.6670 h1         1 X84       0.032200
     32 H213        -1.0070     1.0900    -1.4750 h1         1 X84       0.032200
     33 H15         -2.4730     2.2260     0.0980 h4         1 X84      -0.016900
     34 H16         -5.7190     0.1610     1.6710 h4         1 X84      -0.008900
     35 H17         -4.8150    -1.9910     0.8760 ha         1 X84       0.125000
     36 H18         -2.6520    -2.0210    -0.3560 ha         1 X84       0.111000
     37 H119         1.5560     1.0660    -4.4210 h1         1 X84       0.027200
     38 H219         1.3770    -0.6940    -4.4550 h1         1 X84       0.027200
     39 H120         3.1520    -0.8410    -6.1690 hc         1 X84       0.038700
     40 H220         3.3310     0.9190    -6.1350 hc         1 X84       0.038700
     41 H121         0.7970    -0.5880    -6.8820 h1         1 X84      -0.014300
     42 H221         0.9750     1.1720    -6.8480 h1         1 X84      -0.014300
     43 HO23         1.3150     0.2940    -8.9610 ho         1 X84       0.402000
     44 H023         3.7370     0.6600     2.6950 hn         1 X84       0.242467
     45 C12          2.1050     0.0000     1.9130 c          1 X84       0.370700
@<TRIPOS>BOND
     1     1     8 1   
     2     1    12 1   
     3     1    25 1   
     4     2    26 1   
     5     2    27 1   
     6     2    44 1   
     7     2    45 1   
     8     3    14 ar  
     9     3    15 ar  
    10     4    10 1   
    11     4    18 1   
    12     4    28 1   
    13     5    11 1   
    14     5    23 1   
    15     5    24 1   
    16     6     7 ar  
    17     6    11 ar  
    18     6    29 1   
    19     7     8 ar  
    20     7    45 1   
    21     8     9 ar  
    22     9    10 ar  
    23     9    30 1   
    24    10    11 ar  
    25    12    13 1   
    26    12    31 1   
    27    12    32 1   
    28    13    14 ar  
    29    13    17 ar  
    30    14    33 1   
    31    15    16 ar  
    32    15    34 1   
    33    16    17 ar  
    34    16    35 1   
    35    17    36 1   
    36    18    19 1   
    37    18    37 1   
    38    18    38 1   
    39    19    20 1   
    40    19    39 1   
    41    19    40 1   
    42    20    22 1   
    43    20    41 1   
    44    20    42 1   
    45    21    45 2   
    46    22    43 1   
@<TRIPOS>SUBSTRUCTURE
     1 X84         1 TEMP              0 ****  ****    0 ROOT
