@<TRIPOS>MOLECULE
molecule
   57    59     1     0     0
SMALL
bcc


@<TRIPOS>ATOM
      1 C1           0.0000     0.0000     0.0000 ca         1 X85      -0.318000
      2 C2           1.3880     0.0000     0.0000 ca         1 X85       0.322600
      3 C3           2.0900     0.0000     1.2050 ca         1 X85      -0.243200
      4 C4           1.4220    -0.0020     2.3940 ca         1 X85       0.024000
      5 C5           0.0230    -0.0030     2.4130 ca         1 X85      -0.353600
      6 C6          -0.6910     0.0040     1.2020 ca         1 X85       0.339600
      7 C7          -0.6980    -0.0040     3.6950 c          1 X85       0.523700
      8 N8          -0.0160     0.1110     4.8530 nz         1 X85      -0.674400
      9 O9          -1.9090    -0.1110     3.7120 o          1 X85      -0.486100
     10 N10          3.5710    -0.0000     1.1920 no         1 X85       0.293200
     11 O11          4.1740     0.6480     0.3560 o          1 X85      -0.186000
     12 O12          4.1870    -0.6490     2.0200 o          1 X85      -0.186000
     13 N13         -2.0800     0.0030     1.2090 nu         1 X85      -0.765600
     14 C14         -2.8200     0.1300    -0.0490 c3         1 X85       0.274100
     15 N15          2.0810     0.0010    -1.2060 nu         1 X85      -0.755600
     16 C16          1.3490    -0.1000    -2.4710 c3         1 X85       0.220800
     17 C17          2.3410    -0.0770    -3.6360 c3         1 X85      -0.073400
     18 C18          1.5760    -0.1810    -4.9580 c3         1 X85       0.180800
     19 C19          2.0660     0.4700    -8.7060 c3         1 X85       0.140400
     20 C20          1.1450     0.3290    -7.4900 c3         1 X85       0.140300
     21 N21          1.9590     0.0820    -6.2910 n3         1 X85      -0.771600
     22 C22          2.7700    -1.1320    -6.4530 c3         1 X85       0.140300
     23 C23          3.6750    -0.9770    -7.6780 c3         1 X85       0.140400
     24 O24          2.8700    -0.7070    -8.8290 os         1 X85      -0.419600
     25 C25         -6.9690     0.1330     0.7500 ca         1 X85       0.446200
     26 N26         -6.2820     1.2580     0.7310 nb         1 X85      -0.678000
     27 C27         -4.9870     1.2740     0.4830 ca         1 X85       0.443200
     28 C28         -4.2990     0.1020     0.2330 ca         1 X85      -0.269600
     29 C29         -4.9890    -1.1020     0.2450 ca         1 X85      -0.070000
     30 C30         -6.3500    -1.0790     0.5100 ca         1 X85      -0.250300
     31 H1          -0.5430     0.0030    -0.9380 ha         1 X85       0.175000
     32 H4           1.9760    -0.0050     3.3250 ha         1 X85       0.132000
     33 H1N8         0.5910    -0.6760     4.9620 hn         1 X85       0.476800
     34 H2N8         0.5260     0.9520     4.8380 hn         1 X85       0.476800
     35 HN13        -2.5750    -0.0410     2.0780 hn         1 X85       0.481800
     36 H114        -2.5610    -0.6930    -0.7040 h1         1 X85       0.061700
     37 H214        -2.5610     1.0670    -0.5270 h1         1 X85       0.061700
     38 HN15         3.0810     0.0390    -1.2090 hn         1 X85       0.483800
     39 H116         0.6670     0.7370    -2.5600 h1         1 X85       0.056200
     40 H216         0.7890    -1.0260    -2.4910 h1         1 X85       0.056200
     41 H117         3.0230    -0.9140    -3.5470 hc         1 X85       0.064700
     42 H217         2.9010     0.8500    -3.6160 hc         1 X85       0.064700
     43 H118         0.8940     0.6560    -5.0480 h1         1 X85       0.021700
     44 H218         1.0150    -1.1070    -4.9790 h1         1 X85       0.021700
     45 H120         0.5780     1.2430    -7.3600 h1         1 X85       0.041950
     46 H220         0.4690    -0.5030    -7.6450 h1         1 X85       0.041950
     47 H122         3.5470    -1.1510    -5.6980 h1         1 X85       0.041950
     48 H222         2.1370    -2.0050    -6.3500 h1         1 X85       0.041950
     49 H123         4.3620    -0.1550    -7.5170 h1         1 X85       0.057950
     50 H223         4.2310    -1.8940    -7.8350 h1         1 X85       0.057950
     51 H25         -8.0320     0.1590     0.9570 h4         1 X85       0.039100
     52 H27         -4.4550     2.2180     0.4760 h4         1 X85       0.026100
     53 H29         -4.4770    -2.0370     0.0530 ha         1 X85       0.143000
     54 H30         -6.9210    -2.0000     0.5270 ha         1 X85       0.154000
     55 H119         2.7080     1.3330    -8.5740 h1         1 X85       0.057950
     56 H83         -0.6570     0.0850     5.6210 hn         1 X85       0.476800
     57 H219         1.4670     0.5930    -9.6000 h1         1 X85       0.057950
@<TRIPOS>BOND
     1     1     2 ar
     2     1    31 1
     3     2    15 1
     4     3    10 1
     5     3     2 ar
     6     4     3 ar
     7     4    32 1
     8     5     4 ar
     9     5     6 ar
    10     6     1 ar
    11     7     5 1
    12     8     7 1
    13     8    33 1
    14     8    34 1
    15     9     7 2
    16    10    12 1
    17    11    10 1
    18    13     6 1
    19    13    14 1
    20    13    35 1
    21    14    28 1
    22    14    36 1
    23    14    37 1
    24    15    16 1
    25    15    38 1
    26    16    17 1
    27    16    39 1
    28    16    40 1
    29    17    18 1
    30    17    41 1
    31    17    42 1
    32    18    21 1
    33    18    43 1
    34    18    44 1
    35    19    55 1
    36    19    57 1
    37    20    19 1
    38    20    45 1
    39    20    46 1
    40    21    20 1
    41    21    22 1
    42    22    23 1
    43    22    47 1
    44    22    48 1
    45    23    49 1
    46    23    50 1
    47    24    19 1
    48    24    23 1
    49    25    30 ar
    50    25    51 1
    51    26    25 ar
    52    27    28 ar
    53    27    26 ar
    54    27    52 1
    55    28    29 ar
    56    29    30 ar
    57    29    53 1
    58    30    54 1
    59    56     8 1
@<TRIPOS>SUBSTRUCTURE
     1 X85         1 TEMP              0 ****  ****    0 ROOT
