@<TRIPOS>MOLECULE
X85
   57    59     1     0     0
SMALL
bcc


@<TRIPOS>ATOM
      1 C1           0.0000     0.0000     0.0000 ca         1 X85      -0.329000
      2 C2           1.3880     0.0000     0.0000 ca         1 X85       0.198600
      3 C3           2.0900     0.0000     1.2050 ca         1 X85      -0.527200
      4 C4           1.4220    -0.0020     2.3940 ca         1 X85       0.100000
      5 C5           0.0230    -0.0030     2.4130 ca         1 X85      -0.382600
      6 C6          -0.6910     0.0040     1.2020 ca         1 X85       0.214600
      7 C7          -0.6980    -0.0040     3.6950 c          1 X85       0.370700
      8 N8          -0.0160     0.1110     4.8530 nz         1 X85       0.206600
      9 O9          -1.9090    -0.1110     3.7120 o          1 X85      -0.517100
     10 N10          3.5710    -0.0000     1.1920 no         1 X85       1.047200
     11 O11          4.1740     0.6480     0.3560 o          1 X85      -0.432000
     12 O12          4.1870    -0.6490     2.0200 o          1 X85      -0.432000
     13 N13         -2.0800     0.0030     1.2090 nu         1 X85      -0.355600
     14 C14         -2.8200     0.1300    -0.0490 c3         1 X85       0.220100
     15 N15          2.0810     0.0010    -1.2060 nu         1 X85      -0.338600
     16 C16          1.3490    -0.1000    -2.4710 c3         1 X85       0.146800
     17 C17          2.3410    -0.0770    -3.6360 c3         1 X85      -0.003400
     18 C18          1.5760    -0.1810    -4.9580 c3         1 X85       0.157800
     19 C19          2.0660     0.4700    -8.7060 c3         1 X85       0.215900
     20 C20          1.1450     0.3290    -7.4900 c3         1 X85       0.112800
     21 N21          1.9590     0.0820    -6.2910 n3         1 X85      -0.540600
     22 C22          2.7700    -1.1320    -6.4530 c3         1 X85       0.112800
     23 C23          3.6750    -0.9770    -7.6780 c3         1 X85       0.215900
     24 O24          2.8700    -0.7070    -8.8290 os         1 X85      -0.406600
     25 C25         -6.9690     0.1330     0.7500 ca         1 X85       0.433200
     26 N26         -6.2820     1.2580     0.7310 nb         1 X85      -0.568000
     27 C27         -4.9870     1.2740     0.4830 ca         1 X85       0.428200
     28 C28         -4.2990     0.1020     0.2330 ca         1 X85      -0.276600
     29 C29         -4.9890    -1.1020     0.2450 ca         1 X85      -0.045000
     30 C30         -6.3500    -1.0790     0.5100 ca         1 X85      -0.213300
     31 H1          -0.5430     0.0030    -0.9380 ha         1 X85       0.158000
     32 H4           1.9760    -0.0050     3.3250 ha         1 X85       0.091000
     33 H1N8         0.5910    -0.6760     4.9620 hn         1 X85       0.243800
     34 H2N8         0.5260     0.9520     4.8380 hn         1 X85       0.243800
     35 HN13        -2.5750    -0.0410     2.0780 hn         1 X85       0.347800
     36 H114        -2.5610    -0.6930    -0.7040 h1         1 X85       0.032700
     37 H214        -2.5610     1.0670    -0.5270 h1         1 X85       0.032700
     38 HN15         3.0810     0.0390    -1.2090 hn         1 X85       0.338800
     39 H116         0.6670     0.7370    -2.5600 h1         1 X85       0.028700
     40 H216         0.7890    -1.0260    -2.4910 h1         1 X85       0.028700
     41 H117         3.0230    -0.9140    -3.5470 hc         1 X85       0.030200
     42 H217         2.9010     0.8500    -3.6160 hc         1 X85       0.030200
     43 H118         0.8940     0.6560    -5.0480 h1         1 X85      -0.004300
     44 H218         1.0150    -1.1070    -4.9790 h1         1 X85      -0.004300
     45 H120         0.5780     1.2430    -7.3600 h1         1 X85       0.016700
     46 H220         0.4690    -0.5030    -7.6450 h1         1 X85       0.016700
     47 H122         3.5470    -1.1510    -5.6980 h1         1 X85       0.016700
     48 H222         2.1370    -2.0050    -6.3500 h1         1 X85       0.016700
     49 H123         4.3620    -0.1550    -7.5170 h1         1 X85       0.016450
     50 H223         4.2310    -1.8940    -7.8350 h1         1 X85       0.016450
     51 H25         -8.0320     0.1590     0.9570 h4         1 X85      -0.008900
     52 H27         -4.4550     2.2180     0.4760 h4         1 X85      -0.018900
     53 H29         -4.4770    -2.0370     0.0530 ha         1 X85       0.112000
     54 H30         -6.9210    -2.0000     0.5270 ha         1 X85       0.125000
     55 H119         2.7080     1.3330    -8.5740 h1         1 X85       0.016450
     56 H83         -0.6570     0.0850     5.6210 hn         1 X85       0.243800
     57 H219         1.4670     0.5930    -9.6000 h1         1 X85       0.016450
@<TRIPOS>BOND
     1     1     2 ar  
     2     1     6 ar  
     3     1    31 1   
     4     2     3 ar  
     5     2    15 1   
     6     3     4 ar  
     7     3    10 1   
     8     4     5 ar  
     9     4    32 1   
    10     5     6 ar  
    11     5     7 1   
    12     6    13 1   
    13     7     8 1   
    14     7     9 2   
    15     8    33 1   
    16     8    34 1   
    17     8    56 1   
    18    10    11 1   
    19    10    12 1   
    20    13    14 1   
    21    13    35 1   
    22    14    28 1   
    23    14    36 1   
    24    14    37 1   
    25    15    16 1   
    26    15    38 1   
    27    16    17 1   
    28    16    39 1   
    29    16    40 1   
    30    17    18 1   
    31    17    41 1   
    32    17    42 1   
    33    18    21 1   
    34    18    43 1   
    35    18    44 1   
    36    19    20 1   
    37    19    24 1   
    38    19    55 1   
    39    19    57 1   
    40    20    21 1   
    41    20    45 1   
    42    20    46 1   
    43    21    22 1   
    44    22    23 1   
    45    22    47 1   
    46    22    48 1   
    47    23    24 1   
    48    23    49 1   
    49    23    50 1   
    50    25    26 ar  
    51    25    30 ar  
    52    25    51 1   
    53    26    27 ar  
    54    27    28 ar  
    55    27    52 1   
    56    28    29 ar  
    57    29    30 ar  
    58    29    53 1   
    59    30    54 1   
@<TRIPOS>SUBSTRUCTURE
     1 X85         1 TEMP              0 ****  ****    0 ROOT
