@<TRIPOS>MOLECULE
X86
   48    49     1     0     0
SMALL
bcc


@<TRIPOS>ATOM
      1 N01          0.0000     0.0000     0.0000 nu         1 X86      -0.352600
      2 N02          3.1210    -0.1240     2.7890 nz         1 X86       0.207600
      3 N03         -4.2160    -1.1200     0.6530 nb         1 X86      -0.568000
      4 N04          3.1670    -0.0000    -3.6210 nu         1 X86      -0.329600
      5 N05          5.3470     0.0070    -1.8270 no         1 X86       1.048200
      6 C06          3.6970     0.0000     0.0000 ca         1 X86       0.100000
      7 C07          2.3780     0.0000     0.4670 ca         1 X86      -0.382600
      8 C08          1.3130     0.0010    -0.4520 ca         1 X86       0.214600
      9 C09          1.5820     0.0000    -1.8120 ca         1 X86      -0.329000
     10 C10          2.8970    -0.0000    -2.2560 ca         1 X86       0.197600
     11 C11          3.9490     0.0000    -1.3420 ca         1 X86      -0.528200
     12 C13         -1.1040     0.1460    -0.9520 c3         1 X86       0.221100
     13 C14         -2.4140     0.1140    -0.2110 ca         1 X86      -0.275600
     14 C15         -3.0680    -1.0840     0.0040 ca         1 X86       0.428200
     15 C16         -4.7830    -0.0250     1.1190 ca         1 X86       0.433200
     16 C17         -4.1890     1.2110     0.9410 ca         1 X86      -0.213300
     17 C18         -2.9810     1.2870     0.2640 ca         1 X86      -0.045000
     18 C19          2.0710     0.1300    -4.5840 c3         1 X86       0.146800
     19 C20          2.6350     0.1010    -6.0060 c3         1 X86      -0.046400
     20 C21          1.4910     0.2370    -7.0120 c3         1 X86       0.221400
     21 C22          1.0270     0.3310    -9.3620 c3         1 X86       0.257700
     22 O23          0.9640     0.1120     2.3160 o          1 X86      -0.517100
     23 O24          6.2000    -0.6280    -1.2350 o          1 X86      -0.432000
     24 O25          5.6440     0.6480    -2.8190 o          1 X86      -0.432000
     25 O26          2.0180     0.2100    -8.3410 os         1 X86      -0.412600
     26 HN01        -0.1930    -0.1300     0.9730 hn         1 X86       0.343800
     27 H102         2.7560    -0.1470     3.7210 hn         1 X86       0.243467
     28 H202         3.6230    -0.9700     2.6060 hn         1 X86       0.243467
     29 HN04         4.1050    -0.1220    -3.9460 hn         1 X86       0.333800
     30 H06          4.5200    -0.0010     0.7050 ha         1 X86       0.091000
     31 H09          0.7700    -0.0770    -2.5250 ha         1 X86       0.158000
     32 H113        -1.0740    -0.6670    -1.6680 h1         1 X86       0.032700
     33 H213        -1.0070     1.0910    -1.4750 h1         1 X86       0.032700
     34 H15         -2.6330    -2.0050    -0.3640 h4         1 X86      -0.018900
     35 H16         -5.7260    -0.0940     1.6460 h4         1 X86      -0.008900
     36 H17         -4.6600     2.1070     1.3270 ha         1 X86       0.125000
     37 H18         -2.4910     2.2420     0.1100 ha         1 X86       0.112000
     38 H119         1.5550     1.0690    -4.4200 h1         1 X86       0.027200
     39 H219         1.3760    -0.6910    -4.4540 h1         1 X86       0.027200
     40 H120         3.3290     0.9220    -6.1360 hc         1 X86       0.037700
     41 H220         3.1510    -0.8370    -6.1710 hc         1 X86       0.037700
     42 H121         0.9740     1.1740    -6.8470 h1         1 X86      -0.009300
     43 H221         0.7970    -0.5850    -6.8830 h1         1 X86      -0.009300
     44 H122         0.5010     1.2710    -9.2460 h1         1 X86      -0.007633
     45 H222         0.3230    -0.4890    -9.2810 h1         1 X86      -0.007633
     46 H322         1.5040     0.3020   -10.3340 h1         1 X86      -0.007633
     47 H023         3.7410     0.6560     2.6930 hn         1 X86       0.243467
     48 C12          2.1060    -0.0000     1.9120 c          1 X86       0.369700
@<TRIPOS>BOND
     1     1     8 1   
     2     1    12 1   
     3     1    26 1   
     4     2    27 1   
     5     2    28 1   
     6     2    47 1   
     7     2    48 1   
     8     3    14 ar  
     9     3    15 ar  
    10     4    10 1   
    11     4    18 1   
    12     4    29 1   
    13     5    11 1   
    14     5    23 1   
    15     5    24 1   
    16     6     7 ar  
    17     6    11 ar  
    18     6    30 1   
    19     7     8 ar  
    20     7    48 1   
    21     8     9 ar  
    22     9    10 ar  
    23     9    31 1   
    24    10    11 ar  
    25    12    13 1   
    26    12    32 1   
    27    12    33 1   
    28    13    14 ar  
    29    13    17 ar  
    30    14    34 1   
    31    15    16 ar  
    32    15    35 1   
    33    16    17 ar  
    34    16    36 1   
    35    17    37 1   
    36    18    19 1   
    37    18    38 1   
    38    18    39 1   
    39    19    20 1   
    40    19    40 1   
    41    19    41 1   
    42    20    25 1   
    43    20    42 1   
    44    20    43 1   
    45    21    25 1   
    46    21    44 1   
    47    21    45 1   
    48    21    46 1   
    49    22    48 2   
@<TRIPOS>SUBSTRUCTURE
     1 X86         1 TEMP              0 ****  ****    0 ROOT
