@<TRIPOS>MOLECULE
X87
   47    48     1     0     0
SMALL
bcc


@<TRIPOS>ATOM
      1 N01          0.0000     0.0000     0.0000 nu         1 X87      -0.334600
      2 N02          3.1210    -0.1280     2.7890 nz         1 X87       0.207600
      3 N03         -4.1270     1.2630     0.9110 nb         1 X87      -0.560000
      4 N04          3.1670     0.0020    -3.6210 nu         1 X87      -0.385600
      5 N05          2.0340     0.2120    -8.3770 nz         1 X87       0.092400
      6 N06          5.3470     0.0020    -1.8270 no         1 X87       1.049200
      7 C07          3.6960     0.0000     0.0000 ca         1 X87       0.113000
      8 C08          2.3770     0.0000     0.4660 ca         1 X87      -0.377600
      9 C09          1.3130     0.0010    -0.4520 ca         1 X87       0.215600
     10 C10          1.5820     0.0020    -1.8120 ca         1 X87      -0.322000
     11 C11          2.8970     0.0010    -2.2580 ca         1 X87       0.210600
     12 C12          3.9490     0.0010    -1.3420 ca         1 X87      -0.534200
     13 C14         -1.1040     0.1470    -0.9530 c3         1 X87       0.223100
     14 C15         -2.4150     0.1150    -0.2120 ca         1 X87      -0.292600
     15 C16         -2.9800     1.2830     0.2630 ca         1 X87       0.434200
     16 C17         -4.7790     0.1380     1.1340 ca         1 X87       0.445200
     17 C18         -4.2760    -1.0700     0.6890 ca         1 X87      -0.208300
     18 C19         -3.0710    -1.0880     0.0030 ca         1 X87      -0.049000
     19 C20          2.0710     0.1320    -4.5840 c3         1 X87       0.173800
     20 C21          2.6360     0.1030    -6.0070 c3         1 X87      -0.047400
     21 C22          1.4910     0.2390    -7.0130 c3         1 X87      -0.044200
     22 O23          0.9630     0.1110     2.3170 o          1 X87      -0.493100
     23 O24          6.1970    -0.6400    -1.2360 o          1 X87      -0.430000
     24 O25          5.6480     0.6420    -2.8180 o          1 X87      -0.430000
     25 HN01        -0.1940    -0.1410     0.9720 hn         1 X87       0.348800
     26 HN02         3.6240    -0.9720     2.5980 hn         1 X87       0.247800
     27 HN0A         2.7830    -0.1470     3.7310 hn         1 X87       0.247800
     28 HN04         4.1050    -0.1260    -3.9460 hn         1 X87       0.335800
     29 HN05         2.6740     0.9710    -8.4970 hn         1 X87       0.229467
     30 HN0B         1.2850     0.3000    -9.0360 hn         1 X87       0.229467
     31 H07          4.5180    -0.0010     0.7050 ha         1 X87       0.099000
     32 H10          0.7690    -0.0540    -2.5250 ha         1 X87       0.147000
     33 H14         -1.0070     1.0910    -1.4750 h1         1 X87       0.027200
     34 H14A        -1.0730    -0.6660    -1.6680 h1         1 X87       0.027200
     35 H16         -2.4740     2.2270     0.1000 h4         1 X87      -0.018900
     36 H17         -5.7200     0.1610     1.6700 h4         1 X87      -0.001900
     37 H18         -4.8160    -1.9910     0.8740 ha         1 X87       0.130000
     38 H19         -2.6520    -2.0200    -0.3580 ha         1 X87       0.109000
     39 H20          1.5550     1.0700    -4.4200 h1         1 X87       0.031700
     40 H20A         1.3770    -0.6900    -4.4550 h1         1 X87       0.031700
     41 H21          3.3300     0.9240    -6.1360 hc         1 X87       0.046700
     42 H21A         3.1520    -0.8350    -6.1710 hc         1 X87       0.046700
     43 H22          0.7970    -0.5830    -6.8840 hx         1 X87       0.087700
     44 H22A         0.9740     1.1760    -6.8480 hx         1 X87       0.087700
     45 H023         3.7380     0.6550     2.7010 hn         1 X87       0.247800
     46 H053         2.5260    -0.6470    -8.5240 hn         1 X87       0.229467
     47 C13          2.1050    -0.0010     1.9120 c          1 X87       0.378700
@<TRIPOS>BOND
     1     1     9 1   
     2     1    13 1   
     3     1    25 1   
     4     2    26 1   
     5     2    27 1   
     6     2    45 1   
     7     2    47 1   
     8     3    15 ar  
     9     3    16 ar  
    10     4    11 1   
    11     4    19 1   
    12     4    28 1   
    13     5    21 1   
    14     5    29 1   
    15     5    30 1   
    16     5    46 1   
    17     6    12 1   
    18     6    23 1   
    19     6    24 1   
    20     7     8 ar  
    21     7    12 ar  
    22     7    31 1   
    23     8     9 ar  
    24     8    47 1   
    25     9    10 ar  
    26    10    11 ar  
    27    10    32 1   
    28    11    12 ar  
    29    13    14 1   
    30    13    33 1   
    31    13    34 1   
    32    14    15 ar  
    33    14    18 ar  
    34    15    35 1   
    35    16    17 ar  
    36    16    36 1   
    37    17    18 ar  
    38    17    37 1   
    39    18    38 1   
    40    19    20 1   
    41    19    39 1   
    42    19    40 1   
    43    20    21 1   
    44    20    41 1   
    45    20    42 1   
    46    21    43 1   
    47    21    44 1   
    48    22    47 2   
@<TRIPOS>SUBSTRUCTURE
     1 X87         1 TEMP              0 ****  ****    0 ROOT
