@<TRIPOS>MOLECULE
X88
   32    33     1     0     0
SMALL
bcc


@<TRIPOS>ATOM
      1 C1           0.0000     0.0000     0.0000 ca         1 X88      -0.197000
      2 C2           1.3790     0.0000     0.0000 ca         1 X88       0.093000
      3 C3           2.0810     0.0000     1.1960 ca         1 X88      -0.480200
      4 C4           1.4090    -0.0010     2.3980 ca         1 X88       0.058000
      5 C5           0.0110    -0.0010     2.4140 ca         1 X88      -0.347600
      6 C6          -0.6970    -0.0000     1.2030 ca         1 X88       0.173600
      7 N7          -2.0850    -0.0000     1.2050 nu         1 X88      -0.319600
      8 C8          -0.7160    -0.0020     3.6980 c          1 X88       0.373700
      9 N9          -0.0370    -0.1240     4.8560 nz         1 X88       0.206600
     10 O10         -1.9270     0.1050     3.7110 o          1 X88      -0.501100
     11 N11          3.5620    -0.0010     1.1810 no         1 X88       1.045200
     12 O12          4.1590    -0.0000     0.1190 o          1 X88      -0.429500
     13 O13          4.1810    -0.0010     2.2290 o          1 X88      -0.429500
     14 C14         -2.8200    -0.1230    -0.0560 c3         1 X88       0.107500
     15 C15         -6.9300     0.0040     0.7010 ca         1 X88       0.321900
     16 N16         -6.2990     1.1170     0.3730 nb         1 X88      -0.532000
     17 C17         -5.0000     1.0940     0.1300 ca         1 X88       0.319900
     18 C18         -4.3010    -0.0960     0.2200 ca         1 X88       0.189300
     19 N19         -4.9320    -1.2100     0.5490 nb         1 X88      -0.528000
     20 C20         -6.2310    -1.1870     0.7910 ca         1 X88       0.290900
     21 H1          -0.5410     0.0000    -0.9390 ha         1 X88       0.149000
     22 H2           1.9180     0.0010    -0.9400 ha         1 X88       0.149000
     23 H4           1.9620    -0.0010     3.3300 ha         1 X88       0.106000
     24 HN7         -2.5840     0.1040     2.0660 hn         1 X88       0.345800
     25 HN9         -0.6840    -0.1690     5.6180 hn         1 X88       0.247467
     26 HN9A         0.5130    -0.9600     4.8340 hn         1 X88       0.247467
     27 H14         -2.5590     0.7020    -0.7070 h1         1 X88       0.044700
     28 H14A        -2.5590    -1.0580    -0.5360 h1         1 X88       0.044700
     29 H20         -6.7480    -2.1000     1.0610 h4         1 X88       0.003100
     30 H15         -7.9950     0.0230     0.9000 h4         1 X88       0.003100
     31 H93          0.5650     0.6670     4.9730 hn         1 X88       0.247467
     32 H17         -4.4830     2.0070    -0.1390 h4         1 X88      -0.005900
@<TRIPOS>BOND
     1     1     2 ar  
     2     1     6 ar  
     3     1    21 1   
     4     2     3 ar  
     5     2    22 1   
     6     3     4 ar  
     7     3    11 1   
     8     4     5 ar  
     9     4    23 1   
    10     5     6 ar  
    11     5     8 1   
    12     6     7 1   
    13     7    14 1   
    14     7    24 1   
    15     8     9 1   
    16     8    10 2   
    17     9    25 1   
    18     9    26 1   
    19     9    31 1   
    20    11    12 1   
    21    11    13 1   
    22    14    18 1   
    23    14    27 1   
    24    14    28 1   
    25    15    16 ar  
    26    15    20 ar  
    27    15    30 1   
    28    16    17 ar  
    29    17    18 ar  
    30    17    32 1   
    31    18    19 ar  
    32    19    20 ar  
    33    20    29 1   
@<TRIPOS>SUBSTRUCTURE
     1 X88         1 TEMP              0 ****  ****    0 ROOT
