@<TRIPOS>MOLECULE
molecule
   39    41     1     0     0
SMALL
bcc


@<TRIPOS>ATOM
      1 O            0.0000     0.0000     0.0000 os         1 X89      -0.431600
      2 C1           1.9400     1.2500    -0.7210 c3         1 X89       0.023300
      3 N1           1.5520     1.1910    -2.1330 na         1 X89      -0.196900
      4 C2           0.4110     1.6730    -2.6710 cc         1 X89       0.395400
      5 N3           0.4210     1.4360    -3.9540 nd         1 X89      -0.695000
      6 C4           1.5570     0.7990    -4.2780 cd         1 X89       0.312200
      7 C5           2.2800     0.6420    -3.1530 cc         1 X89      -0.282600
      8 Cl2A         4.1790    -1.1480     0.4400 cl         1 X89      -0.097400
      9 Cl2B        -2.1210    -1.9470    -3.3720 cl         1 X89      -0.090400
     10 Cl4A         3.4380     0.0170     5.6630 cl         1 X89      -0.090400
     11 Cl4B        -6.5710    -0.4150    -0.7190 cl         1 X89      -0.099400
     12 C1A          1.9320     0.0000     1.4210 ca         1 X89      -0.091300
     13 C1B         -2.0830    -0.5930    -1.0270 ca         1 X89      -0.079300
     14 C2A          3.1860    -0.5060     1.7110 ca         1 X89       0.039400
     15 C2B         -2.8670    -1.1640    -2.0140 ca         1 X89       0.040400
     16 C3A          3.6500    -0.5000     3.0150 ca         1 X89      -0.116000
     17 C3B         -4.2460    -1.1100    -1.9200 ca         1 X89      -0.113000
     18 C4A          2.8580     0.0110     4.0270 ca         1 X89       0.041400
     19 C4B         -4.8400    -0.4840    -0.8380 ca         1 X89       0.035400
     20 C5A          1.6040     0.5170     3.7350 ca         1 X89      -0.123000
     21 C5B         -4.0560     0.0850     0.1480 ca         1 X89      -0.124000
     22 C6A          1.1410     0.5110     2.4330 ca         1 X89      -0.081000
     23 C6B         -2.6780     0.0260     0.0560 ca         1 X89      -0.095000
     24 CBA          1.4290     0.0000     0.0000 c3         1 X89       0.175400
     25 CBB         -0.5810    -0.6530    -1.1310 c3         1 X89       0.166700
     26 H1           1.5080     2.1320    -0.2640 h1         1 X89       0.077700
     27 H1A          3.0190     1.2950    -0.6440 h1         1 X89       0.077700
     28 H2          -0.3810     2.1740    -2.1280 h5         1 X89       0.070100
     29 H4           1.8440     0.4740    -5.2710 h4         1 X89       0.043100
     30 H5           3.2500     0.1650    -3.0710 h4         1 X89       0.175000
     31 HC3          4.6160    -0.9310     3.2480 ha         1 X89       0.162000
     32 HC3A        -4.8590    -1.5180    -2.7130 ha         1 X89       0.160000
     33 HC5          0.9840     0.9170     4.5290 ha         1 X89       0.152000
     34 HC5A        -4.5210     0.5700     0.9980 ha         1 X89       0.148000
     35 HC6          0.1590     0.9070     2.2060 ha         1 X89       0.159000
     36 HC6A        -2.0630     0.4720     0.8280 ha         1 X89       0.155000
     37 HCB          1.7900    -0.8840    -0.5110 h1         1 X89       0.071700
     38 HCBA        -0.2620    -0.1550    -2.0390 h1         1 X89       0.062700
     39 HCBB        -0.2610    -1.6880    -1.1540 h1         1 X89       0.062700
@<TRIPOS>BOND
     1     1    24 1
     2     1    25 1
     3     3     2 1
     4     2    24 1
     5     2    26 1
     6     2    27 1
     7     4     3 1
     8     7     3 1
     9     5     4 2
    10     4    28 1
    11     5     6 1
    12     6     7 2
    13     6    29 1
    14     7    30 1
    15    14     8 1
    16    15     9 1
    17    18    10 1
    18    19    11 1
    19    24    12 1
    20    22    12 ar
    21    12    14 ar
    22    23    13 ar
    23    13    25 1
    24    13    15 ar
    25    14    16 ar
    26    17    15 ar
    27    18    16 ar
    28    16    31 1
    29    19    17 ar
    30    17    32 1
    31    20    18 ar
    32    21    19 ar
    33    22    20 ar
    34    20    33 1
    35    21    23 ar
    36    21    34 1
    37    22    35 1
    38    23    36 1
    39    24    37 1
    40    25    38 1
    41    25    39 1
@<TRIPOS>SUBSTRUCTURE
     1 X89         1 TEMP              0 ****  ****    0 ROOT
