@<TRIPOS>MOLECULE
X89
   39    41     1     0     0
SMALL
bcc


@<TRIPOS>ATOM
      1 O          -0.0420    0.2320   -0.4750 os        1 X89     -0.426600
      2 C1          1.9740    1.4380   -0.7890 c3        1 X89      0.048300
      3 N1          1.8820    1.7330   -2.1830 na        1 X89     -0.212900
      4 C2          0.7060    1.9470   -2.9220 cc        1 X89      0.400400
      5 N3          0.9800    2.2080   -4.2160 nd        1 X89     -0.670000
      6 C4          2.3710    2.1580   -4.3290 cd        1 X89      0.292200
      7 C5          2.9480    1.8600   -3.0820 cc        1 X89     -0.259600
      8 CL2A        4.0630   -1.3740    0.0070 cl        1 X89     -0.081400
      9 CL2B       -2.5690   -3.4030   -0.1930 cl        1 X89     -0.085400
     10 CL4A        3.0580   -1.2060    5.2380 cl        1 X89     -0.075400
     11 CL4B       -6.6380   -0.0160   -0.8520 cl        1 X89     -0.081400
     12 C1A         1.8090   -0.2620    1.0180 ca        1 X89     -0.124300
     13 C1B        -2.2080   -0.7490   -0.5720 ca        1 X89     -0.081300
     14 C2A         3.0230   -0.9180    1.2740 ca        1 X89      0.030400
     15 C2B        -3.1170   -1.8120   -0.4490 ca        1 X89      0.023400
     16 C3A         3.4150   -1.2150    2.5840 ca        1 X89     -0.123000
     17 C3B        -4.4950   -1.5910   -0.5350 ca        1 X89     -0.119000
     18 C4A         2.5870   -0.8490    3.6470 ca        1 X89      0.030400
     19 C4B        -4.9660   -0.2930   -0.7480 ca        1 X89      0.024400
     20 C5A         1.3750   -0.1920    3.4100 ca        1 X89     -0.124000
     21 C5B        -4.0730    0.7760   -0.8770 ca        1 X89     -0.123000
     22 C6A         0.9980    0.0960    2.1020 ca        1 X89     -0.095000
     23 C6B        -2.7040    0.5400   -0.7900 ca        1 X89     -0.094000
     24 CBA         1.3750    0.0670   -0.3820 c3        1 X89      0.169400
     25 CBB        -0.7420   -1.0170   -0.4840 c3        1 X89      0.168700
     26 H1          3.0600    1.4410   -0.4870 h1        1 X89      0.076200
     27 H1A         1.4270    2.2370   -0.2100 h1        1 X89      0.076200
     28 H2         -0.2860    1.8820   -2.4610 h5        1 X89      0.067100
     29 H4          2.8700    2.3360   -5.2800 h4        1 X89      0.042100
     30 H5          3.9850    1.7420   -2.7790 h4        1 X89      0.176000
     31 HC3         4.3690   -1.7330    2.7730 ha        1 X89      0.166000
     32 HC3A       -5.2000   -2.4320   -0.4370 ha        1 X89      0.163000
     33 HC5         0.7230    0.0960    4.2500 ha        1 X89      0.157000
     34 HC5A       -4.4470    1.7960   -1.0500 ha        1 X89      0.154000
     35 HC6         0.0420    0.6110    1.9040 ha        1 X89      0.161000
     36 HC6A       -1.9970    1.3800   -0.8930 ha        1 X89      0.156000
     37 HCB         1.7070   -0.7460   -1.0900 h1        1 X89      0.077700
     38 HCBA       -0.4080   -1.6240   -1.3710 h1        1 X89      0.058200
     39 HCBB       -0.5000   -1.5770    0.4620 h1        1 X89      0.058200
@<TRIPOS>BOND
     1    1   24 1   
     2    1   25 1   
     3    2    3 1   
     4    2   24 1   
     5    2   26 1   
     6    2   27 1   
     7    3    4 1   
     8    3    7 1   
     9    4    5 2   
    10    4   28 1   
    11    5    6 1   
    12    6    7 2   
    13    6   29 1   
    14    7   30 1   
    15    8   14 1   
    16    9   15 1   
    17   10   18 1   
    18   11   19 1   
    19   12   14 ar  
    20   12   22 ar  
    21   12   24 1   
    22   13   15 ar  
    23   13   23 ar  
    24   13   25 1   
    25   14   16 ar  
    26   15   17 ar  
    27   16   18 ar  
    28   16   31 1   
    29   17   19 ar  
    30   17   32 1   
    31   18   20 ar  
    32   19   21 ar  
    33   20   22 ar  
    34   20   33 1   
    35   21   23 ar  
    36   21   34 1   
    37   22   35 1   
    38   23   36 1   
    39   24   37 1   
    40   25   38 1   
    41   25   39 1   
@<TRIPOS>SUBSTRUCTURE
     1 X89         1 TEMP              0 ****  ****    0 ROOT
