@<TRIPOS>MOLECULE
molecule
   24    26     1     0     0
SMALL
bcc


@<TRIPOS>ATOM
      1 C13          0.0000     0.0000     0.0000 ca         1 X8D      -0.146000
      2 C14          1.3860     0.0000     0.0000 ca         1 X8D      -0.095000
      3 C12         -0.6970     0.0020     1.1880 ca         1 X8D      -0.092000
      4 C15          2.0870     0.0000     1.1890 ca         1 X8D      -0.145000
      5 C11          0.0000     0.0020     2.4010 ca         1 X8D      -0.087000
      6 C10          1.4020     0.0010     2.3980 ca         1 X8D       0.077700
      7 C3          -0.0350     0.0030     4.8330 cc         1 X8D      -0.123000
      8 C2          -0.7290     0.0030     3.6750 cd         1 X8D      -0.029300
      9 C4           1.4300     0.0020     4.8050 cc         1 X8D       0.013700
     10 C7           3.4300     0.0000     3.8560 c          1 X8D       0.659300
     11 C1          -2.2350     0.0040     3.6910 c3         1 X8D      -0.049800
     12 N5           2.3140     0.0020     5.7740 nd         1 X8D      -0.207600
     13 N6           3.5890     0.0010     5.1950 ns         1 X8D      -0.318900
     14 N9           2.1050     0.0010     3.5990 n          1 X8D      -0.115200
     15 O8           4.3220    -0.0010     3.0270 o          1 X8D      -0.655500
     16 H13         -0.5390    -0.0000    -0.9400 ha         1 X8D       0.135000
     17 H14          1.9240    -0.0020    -0.9400 ha         1 X8D       0.140000
     18 H12         -1.7800     0.0020     1.1830 ha         1 X8D       0.139000
     19 H15          3.1700     0.0000     1.1800 ha         1 X8D       0.179000
     20 H3          -0.5600    -0.0670     5.7780 ha         1 X8D       0.162000
     21 H11C        -2.6010     0.8850     3.1770 hc         1 X8D       0.052700
     22 H12C        -2.5860     0.0130     4.7160 hc         1 X8D       0.052700
     23 H13C        -2.6020    -0.8840     3.1910 hc         1 X8D       0.052700
     24 H6           4.4610     0.0000     5.6860 hn         1 X8D       0.396500
@<TRIPOS>BOND
     1     1     2 ar
     2     1     3 ar
     3     2     4 ar
     4     3     5 ar
     5     4     6 ar
     6     5     6 ar
     7     5     8 1
     8     6    14 1
     9     7     8 2
    10     7     9 1
    11     8    11 1
    12     9    12 2
    13     9    14 1
    14    10    13 1
    15    10    14 1
    16    10    15 2
    17    12    13 1
    18     1    16 1
    19     2    17 1
    20     3    18 1
    21     4    19 1
    22     7    20 1
    23    11    21 1
    24    11    22 1
    25    11    23 1
    26    13    24 1
@<TRIPOS>SUBSTRUCTURE
     1 X8D         1 TEMP              0 ****  ****    0 ROOT
