@<TRIPOS>MOLECULE
X8E
   33    36     1     0     0
SMALL
bcc


@<TRIPOS>ATOM
      1 C13          0.0000     0.0000     0.0000 ca         1 X8E      -0.105000
      2 C12          1.3640     0.0000     0.0000 ca         1 X8E      -0.069000
      3 C17         -2.8970     0.0010    -0.0110 ca         1 X8E      -0.217300
      4 C21         -2.9160    -0.0010     2.3880 ca         1 X8E      -0.217300
      5 C15         -0.0220    -0.0010     2.4190 ca         1 X8E      -0.117000
      6 C18         -4.2760     0.0010     0.0230 ca         1 X8E       0.407700
      7 C20         -4.2950    -0.0010     2.3310 ca         1 X8E       0.407700
      8 C14         -0.7060     0.0000     1.2060 cp         1 X8E      -0.003000
      9 C16         -2.1890     0.0000     1.1940 cp         1 X8E      -0.010000
     10 C11          2.0660     0.0000     1.2110 ca         1 X8E      -0.067000
     11 C10          1.3640    -0.0010     2.4280 ca         1 X8E      -0.084300
     12 C3           4.1910     0.0000     2.3950 cc         1 X8E      -0.085000
     13 C2           3.5340    -0.0000     1.2170 cd         1 X8E      -0.045300
     14 C4           3.4370    -0.0020     3.6510 cc         1 X8E      -0.121300
     15 C7           1.6170    -0.0030     4.9120 c          1 X8E       0.423300
     16 C1           4.2990     0.0000    -0.0810 c3         1 X8E       0.060200
     17 N19         -4.9250     0.0000     1.1720 nb         1 X8E      -0.582000
     18 N5           3.8350    -0.0020     4.9020 nd         1 X8E      -0.331600
     19 N6           2.6970    -0.0040     5.7180 ns         1 X8E       0.109100
     20 N9           2.0540    -0.0020     3.6360 n          1 X8E       0.347800
     21 O8           0.4530    -0.0040     5.2720 o          1 X8E      -0.714500
     22 H13         -0.5390     0.0010    -0.9400 ha         1 X8E       0.116000
     23 H12          1.9050     0.0000    -0.9390 ha         1 X8E       0.115000
     24 H18         -4.8340     0.0020    -0.9060 h4         1 X8E      -0.019400
     25 H21         -2.4060    -0.0020     3.3440 ha         1 X8E       0.125500
     26 H20         -4.8680    -0.0020     3.2500 h4         1 X8E      -0.019400
     27 H15         -0.5720    -0.0010     3.3530 ha         1 X8E       0.166000
     28 H3           5.2720     0.0730     2.4130 ha         1 X8E       0.132000
     29 H11C         5.3620    -0.0080     0.1270 hc         1 X8E       0.015367
     30 H12C         4.0370    -0.8800    -0.6550 hc         1 X8E       0.015367
     31 H13C         4.0480     0.8880    -0.6480 hc         1 X8E       0.015367
     32 H6           2.6870    -0.0050     6.7190 hn         1 X8E       0.225500
     33 H17         -2.3700     0.0020    -0.9580 ha         1 X8E       0.125500
@<TRIPOS>BOND
     1     1     2 ar  
     2     1     8 ar  
     3     1    22 1   
     4     2    10 ar  
     5     2    23 1   
     6     3     6 ar  
     7     3     9 ar  
     8     3    33 1   
     9     4     7 ar  
    10     4     9 ar  
    11     4    25 1   
    12     5     8 ar  
    13     5    11 ar  
    14     5    27 1   
    15     6    17 ar  
    16     6    24 1   
    17     7    17 ar  
    18     7    26 1   
    19     8     9 1   
    20    10    11 ar  
    21    10    13 1   
    22    11    20 1   
    23    12    13 2   
    24    12    14 1   
    25    12    28 1   
    26    13    16 1   
    27    14    18 2   
    28    14    20 1   
    29    15    19 1   
    30    15    20 1   
    31    15    21 2   
    32    16    29 1   
    33    16    30 1   
    34    16    31 1   
    35    18    19 1   
    36    19    32 1   
@<TRIPOS>SUBSTRUCTURE
     1 X8E         1 TEMP              0 ****  ****    0 ROOT
