@<TRIPOS>MOLECULE
molecule
   33    36     1     0     0
SMALL
bcc


@<TRIPOS>ATOM
      1 C13          0.0000     0.0000     0.0000 ca         1 X8E      -0.133000
      2 C12          1.3640     0.0000     0.0000 ca         1 X8E      -0.090000
      3 C17         -2.8970     0.0010    -0.0110 ca         1 X8E      -0.242800
      4 C21         -2.9160    -0.0010     2.3880 ca         1 X8E      -0.242800
      5 C15         -0.0220    -0.0010     2.4190 ca         1 X8E      -0.135000
      6 C18         -4.2760     0.0010     0.0230 ca         1 X8E       0.421200
      7 C20         -4.2950    -0.0010     2.3310 ca         1 X8E       0.421200
      8 C14         -0.7060     0.0000     1.2060 cp         1 X8E      -0.007000
      9 C16         -2.1890     0.0000     1.1940 cp         1 X8E      -0.008000
     10 C11          2.0660     0.0000     1.2110 ca         1 X8E      -0.083000
     11 C10          1.3640    -0.0010     2.4280 ca         1 X8E       0.079700
     12 C3           4.1910     0.0000     2.3950 cc         1 X8E      -0.119000
     13 C2           3.5340    -0.0000     1.2170 cd         1 X8E      -0.030300
     14 C4           3.4370    -0.0020     3.6510 cc         1 X8E       0.012700
     15 C7           1.6170    -0.0030     4.9120 c          1 X8E       0.660300
     16 C1           4.2990     0.0000    -0.0810 c3         1 X8E      -0.049800
     17 N19         -4.9250     0.0000     1.1720 nb         1 X8E      -0.689000
     18 N5           3.8350    -0.0020     4.9020 nd         1 X8E      -0.204600
     19 N6           2.6970    -0.0040     5.7180 ns         1 X8E      -0.315900
     20 N9           2.0540    -0.0020     3.6360 n          1 X8E      -0.115200
     21 O8           0.4530    -0.0040     5.2720 o          1 X8E      -0.658500
     22 H13         -0.5390     0.0010    -0.9400 ha         1 X8E       0.140000
     23 H12          1.9050     0.0000    -0.9390 ha         1 X8E       0.141000
     24 H18         -4.8340     0.0020    -0.9060 h4         1 X8E       0.025600
     25 H21         -2.4060    -0.0020     3.3440 ha         1 X8E       0.145500
     26 H20         -4.8680    -0.0020     3.2500 h4         1 X8E       0.025600
     27 H15         -0.5720    -0.0010     3.3530 ha         1 X8E       0.183000
     28 H3           5.2720     0.0730     2.4130 ha         1 X8E       0.163000
     29 H11C         5.3620    -0.0080     0.1270 hc         1 X8E       0.053367
     30 H12C         4.0370    -0.8800    -0.6550 hc         1 X8E       0.053367
     31 H13C         4.0480     0.8880    -0.6480 hc         1 X8E       0.053367
     32 H6           2.6870    -0.0050     6.7190 hn         1 X8E       0.398500
     33 H17         -2.3700     0.0020    -0.9580 ha         1 X8E       0.145500
@<TRIPOS>BOND
     1     1     2 ar
     2     1     8 ar
     3     2    10 ar
     4     3     6 ar
     5     3     9 ar
     6     4     7 ar
     7     4     9 ar
     8     5     8 ar
     9     5    11 ar
    10     6    17 ar
    11     7    17 ar
    12     8     9 1
    13    10    11 ar
    14    10    13 1
    15    11    20 1
    16    12    13 2
    17    12    14 1
    18    13    16 1
    19    14    18 2
    20    14    20 1
    21    15    19 1
    22    15    20 1
    23    15    21 2
    24    18    19 1
    25     1    22 1
    26     2    23 1
    27     3    33 1
    28     6    24 1
    29     4    25 1
    30     7    26 1
    31     5    27 1
    32    12    28 1
    33    16    29 1
    34    16    30 1
    35    16    31 1
    36    19    32 1
@<TRIPOS>SUBSTRUCTURE
     1 X8E         1 TEMP              0 ****  ****    0 ROOT
