@<TRIPOS>MOLECULE
X8G
   51    55     1     0     0
SMALL
bcc


@<TRIPOS>ATOM
      1 C4           0.0000     0.0000     0.0000 ca         1 X8G       0.421800
      2 C5           1.3940     0.0000     0.0000 ca         1 X8G      -0.408600
      3 C6           2.0540     0.0000     1.2140 ca         1 X8G       0.504200
      4 N1           1.3480    -0.0010     2.3350 nb         1 X8G      -0.698000
      5 N3          -0.6450     0.0050     1.1600 nb         1 X8G      -0.715000
      6 CAL         -3.6470    -1.6210    -5.0870 cy         1 X8G       0.100800
      7 CBA         -5.0060    -2.3250    -5.2550 cy         1 X8G       0.159100
      8 OAC         -4.9690    -3.7240    -4.9700 oh         1 X8G      -0.545800
      9 CAM         -5.4880    -1.4620    -4.0750 cy         1 X8G       0.100800
     10 NBB         -4.0620    -1.3700    -3.6890 nq         1 X8G      -0.516600
     11 CAU         -2.3400     0.0020    -2.6590 cc         1 X8G      -0.304600
     12 CAJ         -2.0600     0.0010    -1.3370 cd         1 X8G      -0.207300
     13 CAS         -1.1270     0.0020    -3.3590 cc         1 X8G       0.390600
     14 CAA         -0.9730    -0.0030    -4.8570 c3         1 X8G      -0.018400
     15 NAP         -0.1500     0.0070    -2.4890 nd         1 X8G      -0.654800
     16 NBD         -0.7070     0.0010    -1.2030 na         1 X8G       0.493600
     17 C2           0.0230     0.0000     2.3040 ca         1 X8G       0.720900
     18 NAR         -0.6800    -0.0010     3.4970 nu         1 X8G      -0.278300
     19 CAT          0.0040     0.1170     4.7130 ca         1 X8G      -0.051400
     20 CAI          1.1500     0.8850     4.7860 ca         1 X8G      -0.006000
     21 CAY          1.8270     0.9970     6.0050 ca         1 X8G      -0.231900
     22 CAV          3.0310     1.7020     6.4330 cc         1 X8G       0.370900
     23 Cl1          4.0480     2.6910     5.4330 cl         1 X8G       0.011700
     24 NAQ          3.2090     1.4540     7.7000 nd         1 X8G      -0.607100
     25 NBC          2.1920     0.6180     8.1730 na         1 X8G       0.458900
     26 CAB          2.0640     0.1300     9.5480 c3         1 X8G       0.036600
     27 CAZ          1.3340     0.3270     7.1420 ca         1 X8G      -0.174200
     28 CAH          0.1770    -0.4400     7.0410 ca         1 X8G      -0.103000
     29 CAG         -0.4780    -0.5380     5.8470 ca         1 X8G      -0.078000
     30 H1           1.9480    -0.0020    -0.9310 ha         1 X8G       0.153000
     31 H2           3.1370    -0.0000     1.2490 h4         1 X8G      -0.013900
     32 H3          -3.5610    -0.7150    -5.6740 h1         1 X8G       0.035700
     33 H4          -2.8040    -2.2970    -5.1660 h1         1 X8G       0.035700
     34 H5          -5.4960    -2.0710    -6.1870 h1         1 X8G       0.003700
     35 H6          -5.3940    -4.1980    -5.6660 ho         1 X8G       0.384000
     36 H7          -5.9070    -0.5120    -4.3850 h1         1 X8G       0.035700
     37 H8          -6.0880    -2.0130    -3.3610 h1         1 X8G       0.035700
     38 H10         -3.7300     0.6500    -4.1370 h1         1 X8G       0.011700
     39 H11         -4.4390     0.3450    -2.5450 h1         1 X8G       0.011700
     40 H12         -2.7790     0.1040    -0.5330 h4         1 X8G       0.160000
     41 H13         -1.0290    -1.0210    -5.2230 hc         1 X8G       0.015033
     42 H14         -1.7650     0.5860    -5.3040 hc         1 X8G       0.015033
     43 H15         -0.0130     0.4240    -5.1230 hc         1 X8G       0.015033
     44 H16         -1.6790    -0.0620     3.4880 hn         1 X8G       0.291800
     45 H17          1.4380     1.5080     3.9480 ha         1 X8G       0.130000
     46 H18          2.8790     0.5170    10.1460 h1         1 X8G       0.018033
     47 H19          2.0960    -0.9530     9.5510 h1         1 X8G       0.018033
     48 H20          1.1210     0.4640     9.9630 h1         1 X8G       0.018033
     49 H21         -0.2090    -0.9540     7.9130 ha         1 X8G       0.106000
     50 H22         -1.3830    -1.1300     5.7790 ha         1 X8G       0.106000
     51 CAK         -3.7170    -0.0040    -3.2740 c3         1 X8G       0.241100
@<TRIPOS>BOND
     1     1     2 ar  
     2     1     5 ar  
     3     1    16 1   
     4     2     3 ar  
     5     2    30 1   
     6     3     4 ar  
     7     3    31 1   
     8     4    17 ar  
     9     5    17 ar  
    10     6     7 1   
    11     6    10 1   
    12     6    32 1   
    13     6    33 1   
    14     7     8 1   
    15     7     9 1   
    16     7    34 1   
    17     8    35 1   
    18     9    10 1   
    19     9    36 1   
    20     9    37 1   
    21    10    51 1   
    22    11    12 2   
    23    11    13 1   
    24    11    51 1   
    25    12    16 1   
    26    12    40 1   
    27    13    14 1   
    28    13    15 2   
    29    14    41 1   
    30    14    42 1   
    31    14    43 1   
    32    15    16 1   
    33    17    18 1   
    34    18    19 1   
    35    18    44 1   
    36    19    20 ar  
    37    19    29 ar  
    38    20    21 ar  
    39    20    45 1   
    40    21    22 1   
    41    21    27 ar  
    42    22    23 1   
    43    22    24 2   
    44    24    25 1   
    45    25    26 1   
    46    25    27 1   
    47    26    46 1   
    48    26    47 1   
    49    26    48 1   
    50    27    28 ar  
    51    28    29 ar  
    52    28    49 1   
    53    29    50 1   
    54    38    51 1   
    55    39    51 1   
@<TRIPOS>SUBSTRUCTURE
     1 X8G         1 TEMP              0 ****  ****    0 ROOT
