@<TRIPOS>MOLECULE
molecule
   51    55     1     0     0
SMALL
bcc


@<TRIPOS>ATOM
      1 C4           0.0000     0.0000     0.0000 ca         1 X8G       0.637800
      2 C5           1.3940     0.0000     0.0000 ca         1 X8G      -0.431600
      3 C6           2.0540     0.0000     1.2140 ca         1 X8G       0.508200
      4 N1           1.3480    -0.0010     2.3350 nb         1 X8G      -0.799000
      5 N3          -0.6450     0.0050     1.1600 nb         1 X8G      -0.838000
      6 CAL         -3.6470    -1.6210    -5.0870 cy         1 X8G       0.094300
      7 CBA         -5.0060    -2.3250    -5.2550 cy         1 X8G       0.114100
      8 OAC         -4.9690    -3.7240    -4.9700 oh         1 X8G      -0.566800
      9 CAM         -5.4880    -1.4620    -4.0750 cy         1 X8G       0.094300
     10 NBB         -4.0620    -1.3700    -3.6890 nq         1 X8G      -0.637600
     11 CAU         -2.3400     0.0020    -2.6590 cc         1 X8G      -0.289600
     12 CAJ         -2.0600     0.0010    -1.3370 cd         1 X8G      -0.055300
     13 CAS         -1.1270     0.0020    -3.3590 cc         1 X8G       0.366600
     14 CAA         -0.9730    -0.0030    -4.8570 c3         1 X8G      -0.114400
     15 NAP         -0.1500     0.0070    -2.4890 nd         1 X8G      -0.503800
     16 NBD         -0.7070     0.0010    -1.2030 na         1 X8G       0.030600
     17 C2           0.0230     0.0000     2.3040 ca         1 X8G       0.963900
     18 NAR         -0.6800    -0.0010     3.4970 nu         1 X8G      -0.751300
     19 CAT          0.0040     0.1170     4.7130 ca         1 X8G       0.113600
     20 CAI          1.1500     0.8850     4.7860 ca         1 X8G      -0.040000
     21 CAY          1.8270     0.9970     6.0050 ca         1 X8G      -0.225900
     22 CAV          3.0310     1.7020     6.4330 cc         1 X8G       0.427900
     23 Cl1          4.0480     2.6910     5.4330 cl         1 X8G      -0.064300
     24 NAQ          3.2090     1.4540     7.7000 nd         1 X8G      -0.490100
     25 NBC          2.1920     0.6180     8.1730 na         1 X8G       0.061900
     26 CAB          2.0640     0.1300     9.5480 c3         1 X8G       0.075600
     27 CAZ          1.3340     0.3270     7.1420 ca         1 X8G      -0.024200
     28 CAH          0.1770    -0.4400     7.0410 ca         1 X8G      -0.142000
     29 CAG         -0.4780    -0.5380     5.8470 ca         1 X8G      -0.107000
     30 H1           1.9480    -0.0020    -0.9310 ha         1 X8G       0.171000
     31 H2           3.1370    -0.0000     1.2490 h4         1 X8G       0.037100
     32 H3          -3.5610    -0.7150    -5.6740 h1         1 X8G       0.064450
     33 H4          -2.8040    -2.2970    -5.1660 h1         1 X8G       0.064450
     34 H5          -5.4960    -2.0710    -6.1870 h1         1 X8G       0.036700
     35 H6          -5.3940    -4.1980    -5.6660 ho         1 X8G       0.400000
     36 H7          -5.9070    -0.5120    -4.3850 h1         1 X8G       0.064450
     37 H8          -6.0880    -2.0130    -3.3610 h1         1 X8G       0.064450
     38 H10         -3.7300     0.6500    -4.1370 h1         1 X8G       0.040200
     39 H11         -4.4390     0.3450    -2.5450 h1         1 X8G       0.040200
     40 H12         -2.7790     0.1040    -0.5330 h4         1 X8G       0.189000
     41 H13         -1.0290    -1.0210    -5.2230 hc         1 X8G       0.052367
     42 H14         -1.7650     0.5860    -5.3040 hc         1 X8G       0.052367
     43 H15         -0.0130     0.4240    -5.1230 hc         1 X8G       0.052367
     44 H16         -1.6790    -0.0620     3.4880 hn         1 X8G       0.465800
     45 H17          1.4380     1.5080     3.9480 ha         1 X8G       0.160000
     46 H18          2.8790     0.5170    10.1460 h1         1 X8G       0.053033
     47 H19          2.0960    -0.9530     9.5510 h1         1 X8G       0.053033
     48 H20          1.1210     0.4640     9.9630 h1         1 X8G       0.053033
     49 H21         -0.2090    -0.9540     7.9130 ha         1 X8G       0.134000
     50 H22         -1.3830    -1.1300     5.7790 ha         1 X8G       0.136000
     51 CAK         -3.7170    -0.0040    -3.2740 c3         1 X8G       0.207100
@<TRIPOS>BOND
     1    23    22 1
     2    20    19 ar
     3    20    21 ar
     4    18    19 1
     5    18    17 1
     6    22    21 1
     7    22    24 2
     8    19    29 ar
     9    21    27 ar
    10     4    17 ar
    11     4     3 ar
    12    17     5 ar
    13    24    25 1
    14    29    28 ar
    15    27    25 1
    16    27    28 ar
    17     3     2 ar
    18     5     1 ar
    19    25    26 1
    20     2     1 ar
    21     1    16 1
    22    16    12 1
    23    16    15 1
    24    12    11 2
    25    15    13 2
    26    11    13 1
    27    11    51 1
    28    13    14 1
    29    51    10 1
    30    10     9 1
    31    10     6 1
    32     9     7 1
    33     6     7 1
    34     8     7 1
    35     2    30 1
    36     3    31 1
    37     6    32 1
    38     6    33 1
    39     7    34 1
    40     8    35 1
    41     9    36 1
    42     9    37 1
    43    51    38 1
    44    51    39 1
    45    12    40 1
    46    14    41 1
    47    14    42 1
    48    14    43 1
    49    18    44 1
    50    20    45 1
    51    26    46 1
    52    26    47 1
    53    26    48 1
    54    28    49 1
    55    29    50 1
@<TRIPOS>SUBSTRUCTURE
     1 X8G         1 TEMP              0 ****  ****    0 ROOT
