@<TRIPOS>MOLECULE
X8I
   35    38     1     0     0
SMALL
bcc


@<TRIPOS>ATOM
      1 C18          0.0000     0.0000     0.0000 ca         1 X8I      -0.077000
      2 C17          1.3800     0.0000     0.0000 ca         1 X8I      -0.161000
      3 C14          4.5960     0.0020     1.6870 ca         1 X8I      -0.085000
      4 C15          5.9580     0.0030     1.4730 ca         1 X8I      -0.116000
      5 C19         -0.6940    -0.0010     1.1960 ca         1 X8I      -0.143000
      6 C12          4.2000     0.0030    -0.6940 ca         1 X8I      -0.069000
      7 C21          1.3770    -0.0010     2.4110 ca         1 X8I      -0.108000
      8 C13          3.7110     0.0020     0.6070 cp         1 X8I      -0.019000
      9 C16          2.0770     0.0000     1.2070 cp         1 X8I      -0.002000
     10 C11          5.5780     0.0030    -0.9140 ca         1 X8I      -0.060000
     11 C10          6.4620     0.0040     0.1780 ca         1 X8I      -0.095300
     12 C20         -0.0080    -0.0010     2.4020 ca         1 X8I       0.133100
     13 C3           7.4450     0.0050    -2.4740 cc         1 X8I      -0.084000
     14 C2           6.1100     0.0030    -2.2830 cd         1 X8I      -0.046300
     15 C4           8.3470     0.0060    -1.3190 cc         1 X8I      -0.122300
     16 C7           8.8710     0.0050     0.8310 c          1 X8I       0.421300
     17 C1           5.1730     0.0020    -3.4630 c3         1 X8I       0.060200
     18 N5           9.6560     0.0080    -1.2430 nd         1 X8I      -0.332600
     19 N6          10.0110     0.0060     0.1120 ns         1 X8I       0.107100
     20 N9           7.8360     0.0050    -0.0350 n          1 X8I       0.350800
     21 O8           8.7900     0.0030     2.0470 o          1 X8I      -0.710500
     22 O22         -0.6950    -0.0010     3.5750 oh         1 X8I      -0.498100
     23 H18         -0.5400     0.0000    -0.9390 ha         1 X8I       0.102000
     24 H17          1.9220     0.0010    -0.9380 ha         1 X8I       0.119000
     25 H19         -1.7780    -0.0010     1.1910 ha         1 X8I       0.114000
     26 H15          6.6380     0.0030     2.3170 ha         1 X8I       0.159000
     27 H12          3.5140     0.0020    -1.5330 ha         1 X8I       0.123000
     28 H21          1.9140    -0.0010     3.3520 ha         1 X8I       0.116000
     29 H22         -0.8820    -0.8890     3.8300 ho         1 X8I       0.404000
     30 H3           7.8490     0.0800    -3.4760 ha         1 X8I       0.131000
     31 H11C         4.5440    -0.8790    -3.4230 hc         1 X8I       0.015700
     32 H12C         4.5530     0.8900    -3.4320 hc         1 X8I       0.015700
     33 H13C         5.7480    -0.0050    -4.3810 hc         1 X8I       0.015700
     34 H6          10.9420     0.0050     0.4800 hn         1 X8I       0.224500
     35 H14          4.2100     0.0020     2.6990 ha         1 X8I       0.117000
@<TRIPOS>BOND
     1     1     2 ar  
     2     1     5 ar  
     3     1    23 1   
     4     2     9 ar  
     5     2    24 1   
     6     3     4 ar  
     7     3     8 ar  
     8     3    35 1   
     9     4    11 ar  
    10     4    26 1   
    11     5    12 ar  
    12     5    25 1   
    13     6     8 ar  
    14     6    10 ar  
    15     6    27 1   
    16     7     9 ar  
    17     7    12 ar  
    18     7    28 1   
    19     8     9 1   
    20    10    11 ar  
    21    10    14 1   
    22    11    20 1   
    23    12    22 1   
    24    13    14 2   
    25    13    15 1   
    26    13    30 1   
    27    14    17 1   
    28    15    18 2   
    29    15    20 1   
    30    16    19 1   
    31    16    20 1   
    32    16    21 2   
    33    17    31 1   
    34    17    32 1   
    35    17    33 1   
    36    18    19 1   
    37    19    34 1   
    38    22    29 1   
@<TRIPOS>SUBSTRUCTURE
     1 X8I         1 TEMP              0 ****  ****    0 ROOT
