@<TRIPOS>MOLECULE
X8M
   54    56     1     0     0
SMALL
bcc


@<TRIPOS>ATOM
      1 CAA          0.0000     0.0000     0.0000 c3         1 X8M      -0.016600
      2 CAS          1.5290     0.0000     0.0000 c3         1 X8M      -0.029500
      3 CAB          2.0400     1.2490    -0.7200 c3         1 X8M      -0.016600
      4 NAX          2.0190     0.0000     1.3860 n4         1 X8M       0.032200
      5 CAC          1.5620     1.2010     2.0960 c3         1 X8M      -0.030900
      6 CAU          1.5770    -1.2290     2.0970 c3         1 X8M      -0.013500
      7 CAN          1.8820    -1.0260     3.5900 c3         1 X8M      -0.063400
      8 CAL          2.5200    -2.3340     1.5680 c3         1 X8M      -0.055400
      9 CAM          3.7920    -1.5860     1.1180 c3         1 X8M      -0.055400
     10 CAV          3.5030    -0.0930     1.4160 c3         1 X8M      -0.013500
     11 CAO          3.9470     0.1920     2.8600 c3         1 X8M      -0.063400
     12 CAT          3.3980    -0.9100     3.7740 c3         1 X8M       0.175100
     13 OAP          4.0240    -2.1770     3.4380 os         1 X8M      -0.416900
     14 CAQ          5.1600    -2.4840     4.0820 c          1 X8M       0.672100
     15 OAD          5.6170    -1.7210     4.9000 o          1 X8M      -0.535000
     16 CAW          5.8670    -3.7830     3.7860 c3         1 X8M      -0.032400
     17 CAK          6.2570    -3.8240     2.3080 c3         1 X8M       0.222400
     18 OAE          6.8210    -5.1010     2.0000 oh         1 X8M      -0.567800
     19 CAR          7.1070    -3.8850     4.6360 ca         1 X8M      -0.099300
     20 CAI          7.2500    -4.9330     5.5260 ca         1 X8M      -0.075000
     21 CAG          8.3880    -5.0270     6.3060 ca         1 X8M      -0.093000
     22 CAF          9.3820    -4.0740     6.1950 ca         1 X8M      -0.080000
     23 CAH          9.2390    -3.0260     5.3040 ca         1 X8M      -0.093000
     24 CAJ          8.1040    -2.9350     4.5220 ca         1 X8M      -0.075000
     25 HAA1        -0.3610    -0.9590     0.3510 hc         1 X8M       0.036700
     26 HAA2        -0.3610     0.1760    -1.0060 hc         1 X8M       0.036700
     27 HAA3        -0.3610     0.7840     0.6550 hc         1 X8M       0.036700
     28 HAS          1.8910    -0.8840    -0.5110 hx         1 X8M       0.090700
     29 HAB1         1.4460     2.1050    -0.4240 hc         1 X8M       0.036700
     30 HAB2         3.0760     1.4210    -0.4560 hc         1 X8M       0.036700
     31 HAB3         1.9590     1.1070    -1.7910 hc         1 X8M       0.036700
     32 HAC1         1.9100     2.0840     1.5740 hx         1 X8M       0.084367
     33 HAC2         0.4790     1.2080     2.1330 hx         1 X8M       0.084367
     34 HAC3         1.9580     1.1980     3.1040 hx         1 X8M       0.084367
     35 HAU          0.5340    -1.4560     1.9150 hx         1 X8M       0.098700
     36 HAV          3.9730     0.5690     0.6990 hx         1 X8M       0.098700
     37 HAN1         1.4030    -0.1200     3.9390 hc         1 X8M       0.062700
     38 HAN2         1.5120    -1.8740     4.1540 hc         1 X8M       0.062700
     39 HAL1         2.0670    -2.8460     0.7270 hc         1 X8M       0.067700
     40 HAL2         2.7560    -3.0380     2.3570 hc         1 X8M       0.067700
     41 HAT          3.6170    -0.6630     4.8060 h1         1 X8M       0.075700
     42 HAM1         4.6500    -1.9250     1.6870 hc         1 X8M       0.067700
     43 HAM2         3.9610    -1.7330     0.0580 hc         1 X8M       0.067700
     44 HAO1         3.5600     1.1530     3.1760 hc         1 X8M       0.062700
     45 HAO2         5.0290     0.2020     2.9120 hc         1 X8M       0.062700
     46 HAW          5.2070    -4.6120     4.0090 hc         1 X8M       0.063700
     47 HAK1         6.9860    -3.0490     2.1040 h1         1 X8M      -0.012800
     48 HAK2         5.3770    -3.6620     1.6970 h1         1 X8M      -0.012800
     49 HAE          6.9620    -5.1660     1.0700 ho         1 X8M       0.398000
     50 HAI          6.4710    -5.6810     5.6120 ha         1 X8M       0.100500
     51 HAJ          7.9920    -2.1140     3.8240 ha         1 X8M       0.100500
     52 HAG          8.5010    -5.8480     7.0030 ha         1 X8M       0.108500
     53 HAF         10.2730    -4.1460     6.8070 ha         1 X8M       0.109000
     54 HAH         10.0200    -2.2800     5.2160 ha         1 X8M       0.108500
@<TRIPOS>BOND
     1     1     2 1   
     2     1    25 1   
     3     1    26 1   
     4     1    27 1   
     5     2     3 1   
     6     2     4 1   
     7     2    28 1   
     8     3    29 1   
     9     3    30 1   
    10     3    31 1   
    11     4     5 1   
    12     4     6 1   
    13     4    10 1   
    14     5    32 1   
    15     5    33 1   
    16     5    34 1   
    17     6     7 1   
    18     6     8 1   
    19     6    35 1   
    20     7    12 1   
    21     7    37 1   
    22     7    38 1   
    23     8     9 1   
    24     8    39 1   
    25     8    40 1   
    26     9    10 1   
    27     9    42 1   
    28     9    43 1   
    29    10    11 1   
    30    10    36 1   
    31    11    12 1   
    32    11    44 1   
    33    11    45 1   
    34    12    13 1   
    35    12    41 1   
    36    13    14 1   
    37    14    15 2   
    38    14    16 1   
    39    16    17 1   
    40    16    19 1   
    41    16    46 1   
    42    17    18 1   
    43    17    47 1   
    44    17    48 1   
    45    18    49 1   
    46    19    20 ar  
    47    19    24 ar  
    48    20    21 ar  
    49    20    50 1   
    50    21    22 ar  
    51    21    52 1   
    52    22    23 ar  
    53    22    53 1   
    54    23    24 ar  
    55    23    54 1   
    56    24    51 1   
@<TRIPOS>SUBSTRUCTURE
     1 X8M         1 TEMP              0 ****  ****    0 ROOT
