@<TRIPOS>MOLECULE
molecule
   66    71     1     0     0
SMALL
bcc


@<TRIPOS>ATOM
      1 O2           0.0000     0.0000     0.0000 o          1 X8U      -0.818300
      2 C20          1.3470     0.0000     0.0000 c          1 X8U       0.799100
      3 O1           1.9550     0.0000     1.0520 o          1 X8U      -0.818300
      4 C19          2.0830     0.0010    -1.2750 cc         1 X8U       0.345800
      5 N4           1.4710     0.0020    -2.4520 nc         1 X8U      -0.586000
      6 C21          3.4440     0.0060    -1.3360 cd         1 X8U      -0.109700
      7 C22          4.3740     0.0120    -0.1500 c3         1 X8U       0.003900
      8 C23          4.6940    -1.4290     0.2550 c3         1 X8U      -0.070400
      9 C24          5.6370    -1.4230     1.4580 c3         1 X8U      -0.074400
     10 C25          5.9580    -2.8640     1.8620 c3         1 X8U      -0.040100
     11 C26          6.8870    -2.8580     3.0480 ca         1 X8U      -0.067300
     12 C31          6.3710    -2.8580     4.3310 ca         1 X8U      -0.125500
     13 C30          7.2240    -2.8540     5.4190 ca         1 X8U      -0.131500
     14 C29          8.5930    -2.8490     5.2250 ca         1 X8U      -0.144000
     15 C28          9.1090    -2.8500     3.9420 ca         1 X8U      -0.131500
     16 C27          8.2560    -2.8590     2.8540 ca         1 X8U      -0.125500
     17 S2           3.9280     0.0040    -2.9770 ss         1 X8U      -0.322300
     18 C18          2.2460     0.0020    -3.4930 cd         1 X8U       0.461900
     19 C15          1.7850     0.0030    -4.8980 ca         1 X8U      -0.092500
     20 C16          2.7130     0.0020    -5.9420 ca         1 X8U      -0.117000
     21 C17          2.2860     0.0050    -7.2540 ca         1 X8U      -0.142000
     22 C12          0.9350     0.0070    -7.5540 ca         1 X8U      -0.077300
     23 C11          0.5100     0.0180    -8.9980 c3         1 X8U      -0.031100
     24 C10         -0.9060    -0.5310    -9.1620 c3         1 X8U      -0.073400
     25 C9          -1.8640     0.2540    -8.2560 c3         1 X8U      -0.154700
     26 C14          0.4230    -0.0030    -5.1890 ca         1 X8U      -0.051000
     27 C13          0.0010     0.0030    -6.5180 ca         1 X8U      -0.121900
     28 C8          -1.4470    -0.0070    -6.8240 ce         1 X8U       0.378900
     29 N3          -2.3290    -0.2320    -5.8980 n2         1 X8U      -0.337400
     30 N2          -3.6930    -0.2350    -6.2150 nu         1 X8U      -0.550300
     31 C7          -4.6300    -0.4740    -5.2310 cc         1 X8U       0.689100
     32 S1          -6.3690    -0.5070    -5.4870 ss         1 X8U      -0.220100
     33 C4          -6.6270    -0.8560    -3.7790 ca         1 X8U      -0.061100
     34 C3          -7.7980    -1.0560    -3.0510 ca         1 X8U      -0.090000
     35 C2          -7.7360    -1.3190    -1.7000 ca         1 X8U      -0.141000
     36 N1          -4.3530    -0.7100    -3.9930 nd         1 X8U      -0.595100
     37 C5          -5.3810    -0.9210    -3.1470 ca         1 X8U       0.170400
     38 C6          -5.3440    -1.1920    -1.7630 ca         1 X8U      -0.071000
     39 C1          -6.5070    -1.3850    -1.0620 ca         1 X8U      -0.126000
     40 H221         5.2910     0.5250    -0.4120 hc         1 X8U       0.066700
     41 H222         3.8990     0.5220     0.6790 hc         1 X8U       0.066700
     42 H231         3.7770    -1.9430     0.5170 hc         1 X8U       0.047700
     43 H232         5.1700    -1.9390    -0.5740 hc         1 X8U       0.047700
     44 H241         5.1610    -0.9130     2.2870 hc         1 X8U       0.044200
     45 H242         6.5540    -0.9090     1.1960 hc         1 X8U       0.044200
     46 H251         5.0410    -3.3780     2.1240 hc         1 X8U       0.048700
     47 H252         6.4330    -3.3730     1.0330 hc         1 X8U       0.048700
     48 H31          5.2990    -2.8620     4.4830 ha         1 X8U       0.134000
     49 H27          8.6610    -2.8590     1.8490 ha         1 X8U       0.134000
     50 H30          6.8190    -2.8530     6.4240 ha         1 X8U       0.121000
     51 H29          9.2610    -2.8440     6.0770 ha         1 X8U       0.118000
     52 H28         10.1810    -2.8480     3.7900 ha         1 X8U       0.121000
     53 H16          3.7740     0.0000    -5.7200 ha         1 X8U       0.134000
     54 H14         -0.3010    -0.1170    -4.3910 ha         1 X8U       0.197000
     55 H17          3.0150     0.0040    -8.0560 ha         1 X8U       0.121000
     56 H111         0.5390     1.0360    -9.3670 hc         1 X8U       0.046200
     57 H112         1.1950    -0.5940    -9.5720 hc         1 X8U       0.046200
     58 H101        -1.2160    -0.4230   -10.1950 hc         1 X8U       0.044700
     59 H102        -0.9220    -1.5770    -8.8820 hc         1 X8U       0.044700
     60 H91C        -2.8740    -0.1100    -8.4050 hc         1 X8U       0.051200
     61 H92C        -1.7680     1.3120    -8.4680 hc         1 X8U       0.051200
     62 HA          -3.9890    -0.0330    -7.1490 hn         1 X8U       0.436800
     63 H3          -8.7530    -1.0030    -3.5580 ha         1 X8U       0.124000
     64 HB          -8.6500    -1.4740    -1.1380 ha         1 X8U       0.125000
     65 H1          -6.4740    -1.5890     0.0020 ha         1 X8U       0.136000
     66 H6          -4.4020    -1.2670    -1.2320 ha         1 X8U       0.173000
@<TRIPOS>BOND
     1     1     2 1
     2     2     3 1
     3     2     4 1
     4     4     5 1
     5     4     6 2
     6     5    18 2
     7     6     7 1
     8     6    17 1
     9     7     8 1
    10     8     9 1
    11     9    10 1
    12    10    11 1
    13    11    12 ar
    14    11    16 ar
    15    12    13 ar
    16    13    14 ar
    17    14    15 ar
    18    15    16 ar
    19    17    18 1
    20    18    19 1
    21    19    20 ar
    22    19    26 ar
    23    20    21 ar
    24    21    22 ar
    25    22    23 1
    26    22    27 ar
    27    23    24 1
    28    24    25 1
    29    25    28 1
    30    26    27 ar
    31    27    28 1
    32    28    29 2
    33    29    30 1
    34    30    31 1
    35    31    32 1
    36    31    36 2
    37    32    33 1
    38    33    34 ar
    39    33    37 ar
    40    34    35 ar
    41    35    39 ar
    42    36    37 1
    43    37    38 ar
    44    38    39 ar
    45     7    40 1
    46     7    41 1
    47     8    42 1
    48     8    43 1
    49     9    44 1
    50     9    45 1
    51    10    46 1
    52    10    47 1
    53    12    48 1
    54    16    49 1
    55    13    50 1
    56    14    51 1
    57    15    52 1
    58    20    53 1
    59    26    54 1
    60    21    55 1
    61    23    56 1
    62    23    57 1
    63    24    58 1
    64    24    59 1
    65    25    60 1
    66    25    61 1
    67    30    62 1
    68    34    63 1
    69    35    64 1
    70    39    65 1
    71    38    66 1
@<TRIPOS>SUBSTRUCTURE
     1 X8U         1 TEMP              0 ****  ****    0 ROOT
