@<TRIPOS>MOLECULE
X8W
   32    33     1     0     0
SMALL
bcc


@<TRIPOS>ATOM
      1 CAJ         0.2410   -0.9080    0.5510 ca        1 X8W     -0.069000
      2 CAH         1.2750   -0.0020    0.3610 ca        1 X8W     -0.191000
      3 CAO         1.2270    1.2360    1.0250 ca        1 X8W      0.133100
      4 OAB         2.2800    2.0930    0.8050 oh        1 X8W     -0.497100
      5 CAI         0.1520    1.5550    1.8660 ca        1 X8W     -0.191000
      6 CAK        -0.8780    0.6340    2.0390 ca        1 X8W     -0.069000
      7 CAQ        -0.8510   -0.6040    1.3860 ca        1 X8W     -0.107800
      8 CAG        -1.8900   -1.6060    1.5460 ce        1 X8W     -0.041200
      9 CAF        -3.1630   -1.4650    1.9340 cf        1 X8W     -0.244200
     10 CAN        -3.8870   -0.2350    2.2940 c         1 X8W      0.613900
     11 OAA        -3.9790    0.7550    1.5630 o         1 X8W     -0.505100
     12 CAT        -4.5650   -0.2910    3.6150 ca        1 X8W     -0.248600
     13 CAR        -4.2070    0.6000    4.6470 ca        1 X8W      0.223600
     14 OAD        -3.1790    1.4690    4.3800 oh        1 X8W     -0.489600
     15 CAL        -4.8460    0.5900    5.8930 ca        1 X8W     -0.312000
     16 CAP        -5.8770   -0.3340    6.1090 ca        1 X8W      0.214100
     17 OAC        -6.4750   -0.3000    7.3430 oh        1 X8W     -0.488100
     18 CAM        -6.2640   -1.2400    5.1130 ca        1 X8W     -0.312000
     19 CAS        -5.5990   -1.2080    3.8790 ca        1 X8W      0.223600
     20 OAE        -5.9360   -2.0760    2.8690 oh        1 X8W     -0.489600
     21 HAJ         0.2750   -1.8790    0.0330 ha        1 X8W      0.144500
     22 HAH         2.1250   -0.2330   -0.2950 ha        1 X8W      0.142500
     23 HAB         2.1040    2.9120    1.2910 ho        1 X8W      0.419000
     24 HAI         0.1180    2.5260    2.3790 ha        1 X8W      0.142500
     25 HAK        -1.7260    0.8950    2.6960 ha        1 X8W      0.144500
     26 HAD        -3.0770    2.0610    5.1410 ho        1 X8W      0.429000
     27 HAL        -4.5590    1.2890    6.6900 ha        1 X8W      0.150000
     28 HAC        -7.1680   -0.9780    7.3630 ho        1 X8W      0.426000
     29 HAM        -7.0730   -1.9590    5.2930 ha        1 X8W      0.150000
     30 HAE        -6.7000   -2.5970    3.1580 ho        1 X8W      0.429000
     31 HAG        -1.5470   -2.6340    1.3040 ha        1 X8W      0.121000
     32 HAF        -3.8060   -2.3630    2.0120 ha        1 X8W      0.151000
@<TRIPOS>BOND
     1    1    2 ar  
     2    1    7 ar  
     3    1   21 1   
     4    2    3 ar  
     5    2   22 1   
     6    3    4 1   
     7    3    5 ar  
     8    4   23 1   
     9    5    6 ar  
    10    5   24 1   
    11    6    7 ar  
    12    6   25 1   
    13    7    8 1   
    14    8    9 2   
    15    8   31 1   
    16    9   10 1   
    17    9   32 1   
    18   10   11 2   
    19   10   12 1   
    20   12   13 ar  
    21   12   19 ar  
    22   13   14 1   
    23   13   15 ar  
    24   14   26 1   
    25   15   16 ar  
    26   15   27 1   
    27   16   17 1   
    28   16   18 ar  
    29   17   28 1   
    30   18   19 ar  
    31   18   29 1   
    32   19   20 1   
    33   20   30 1   
@<TRIPOS>SUBSTRUCTURE
     1 X8W         1 TEMP              0 ****  ****    0 ROOT
