@<TRIPOS>MOLECULE
molecule
   32    33     1     0     0
SMALL
bcc


@<TRIPOS>ATOM
      1 CAJ          0.0000     0.0000     0.0000 ca         1 X8W      -0.093000
      2 CAH          1.3770     0.0000     0.0000 ca         1 X8W      -0.157000
      3 CAO          2.0740     0.0000     1.2020 ca         1 X8W       0.116100
      4 OAB          3.4310     0.0010     1.1970 oh         1 X8W      -0.522100
      5 CAI          1.3870     0.0000     2.4110 ca         1 X8W      -0.157000
      6 CAK          0.0110    -0.0010     2.4220 ca         1 X8W      -0.093000
      7 CAQ         -0.6970    -0.0010     1.2130 ca         1 X8W      -0.088800
      8 CAG         -2.1670    -0.0010     1.2200 ce         1 X8W      -0.025200
      9 CAF         -2.8380    -0.0020     2.3920 cf         1 X8W      -0.251200
     10 CAN         -4.3000    -0.0030     2.3990 c          1 X8W       0.607900
     11 OAA         -4.9140     0.0940     1.3510 o          1 X8W      -0.529100
     12 CAT         -5.0310    -0.1190     3.6700 ca         1 X8W      -0.200600
     13 CAR         -5.4670     1.0340     4.3420 ca         1 X8W       0.175600
     14 OAD         -5.2170     2.2610     3.8190 oh         1 X8W      -0.507600
     15 CAL         -6.1540     0.9160     5.5370 ca         1 X8W      -0.229000
     16 CAP         -6.4110    -0.3390     6.0730 ca         1 X8W       0.160100
     17 OAC         -7.0850    -0.4470     7.2460 oh         1 X8W      -0.520100
     18 CAM         -5.9820    -1.4850     5.4160 ca         1 X8W      -0.229000
     19 CAS         -5.3000    -1.3850     4.2170 ca         1 X8W       0.175600
     20 OAE         -4.8870    -2.5050     3.5730 oh         1 X8W      -0.507600
     21 HAJ         -0.5430    -0.0000    -0.9380 ha         1 X8W       0.139500
     22 HAH          1.9170     0.0010    -0.9390 ha         1 X8W       0.142500
     23 HAB          3.7460    -0.8880     1.1960 ho         1 X8W       0.421000
     24 HAI          1.9350     0.0000     3.3450 ha         1 X8W       0.142500
     25 HAK         -0.5240    -0.0010     3.3640 ha         1 X8W       0.139500
     26 HAD         -6.0320     2.7130     3.6740 ho         1 X8W       0.432500
     27 HAL         -6.4910     1.8050     6.0560 ha         1 X8W       0.152000
     28 HAC         -6.4720    -0.4390     7.9620 ho         1 X8W       0.427000
     29 HAM         -6.1890    -2.4600     5.8400 ha         1 X8W       0.152000
     30 HAE         -5.6340    -3.0400     3.3620 ho         1 X8W       0.432500
     31 HAG         -2.7130    -0.0010     0.2840 ha         1 X8W       0.153000
     32 HAF         -2.2920    -0.0020     3.3290 ha         1 X8W       0.141000
@<TRIPOS>BOND
     1     1     2 ar
     2     1     7 ar
     3     2     3 ar
     4     3     4 1
     5     3     5 ar
     6     5     6 ar
     7     6     7 ar
     8     7     8 1
     9     8     9 2
    10     9    10 1
    11    10    11 2
    12    10    12 1
    13    12    13 ar
    14    12    19 ar
    15    13    14 1
    16    13    15 ar
    17    15    16 ar
    18    16    17 1
    19    16    18 ar
    20    18    19 ar
    21    19    20 1
    22     1    21 1
    23     2    22 1
    24     4    23 1
    25     5    24 1
    26     6    25 1
    27    14    26 1
    28    15    27 1
    29    17    28 1
    30    18    29 1
    31    20    30 1
    32     8    31 1
    33     9    32 1
@<TRIPOS>SUBSTRUCTURE
     1 X8W         1 TEMP              0 ****  ****    0 ROOT
