@<TRIPOS>MOLECULE
X8Z
   28    28     1     0     0
SMALL
bcc


@<TRIPOS>ATOM
      1 O1           0.0000     0.0000     0.0000 o          1 X8Z      -0.635100
      2 C4           1.2120     0.0000     0.0000 c          1 X8Z       0.605100
      3 C2           1.9660     0.0000     1.3050 c3         1 X8Z      -0.105700
      4 C1           0.9730     0.0000     2.4690 c3         1 X8Z       0.135700
      5 S            1.8750     0.1500     4.0350 sh         1 X8Z      -0.449900
      6 C3           2.8470    -1.2480     1.3860 c3         1 X8Z      -0.023100
      7 H11C         0.4100    -0.9260     2.4630 h1         1 X8Z       0.050200
      8 H12C         0.2920     0.8360     2.3620 h1         1 X8Z       0.050200
      9 H31C         2.7990    -1.6600     2.3860 hc         1 X8Z       0.020367
     10 H32C         3.8710    -0.9830     1.1530 hc         1 X8Z       0.020367
     11 H33C         2.4950    -1.9850     0.6740 hc         1 X8Z       0.020367
     12 H            1.0440     0.5600     4.9860 hs         1 X8Z       0.171800
     13 H2           2.5890     0.8850     1.3620 hc         1 X8Z       0.035700
     14 N            1.8860    -0.0050    -1.1670 n          1 X8Z      -0.110800
     15 C8           1.2800    -0.0120    -2.5070 c3         1 X8Z      -0.081300
     16 C9           0.4570    -1.2610    -2.6900 c          1 X8Z       0.977600
     17 O3           0.3790    -2.0700    -1.7960 o          1 X8Z      -0.885800
     18 O2          -0.1900    -1.4740    -3.8460 o          1 X8Z      -0.885800
     19 C5           3.3540     0.0010    -1.3130 c3         1 X8Z       0.035000
     20 C6           3.6100     0.6050    -2.7160 c3         1 X8Z      -0.050400
     21 C7           2.4330     0.0120    -3.5320 c3         1 X8Z      -0.004400
     22 H8           0.6590     0.8660    -2.6330 h1         1 X8Z       0.030700
     23 H51C         3.8040     0.6230    -0.5480 h1         1 X8Z       0.009200
     24 H52C         3.7410    -1.0090    -1.2620 h1         1 X8Z       0.009200
     25 H71C         2.6680    -0.9920    -3.8660 hc         1 X8Z       0.025200
     26 H72C         2.1870     0.6550    -4.3690 hc         1 X8Z       0.025200
     27 H61C         3.5530     1.6870    -2.6870 hc         1 X8Z       0.006700
     28 H62C         4.5620     0.2700    -3.1120 hc         1 X8Z       0.006700
@<TRIPOS>BOND
     1     1     2 2   
     2     2     3 1   
     3     2    14 1   
     4     3     4 1   
     5     3     6 1   
     6     3    13 1   
     7     4     5 1   
     8     4     7 1   
     9     4     8 1   
    10     5    12 1   
    11     6     9 1   
    12     6    10 1   
    13     6    11 1   
    14    14    15 1   
    15    14    19 1   
    16    15    16 1   
    17    15    21 1   
    18    15    22 1   
    19    16    17 1   
    20    16    18 1   
    21    19    20 1   
    22    19    23 1   
    23    19    24 1   
    24    20    21 1   
    25    20    27 1   
    26    20    28 1   
    27    21    25 1   
    28    21    26 1   
@<TRIPOS>SUBSTRUCTURE
     1 X8Z         1 TEMP              0 ****  ****    0 ROOT
