@<TRIPOS>MOLECULE
molecule
   52    51     1     0     0
SMALL
bcc


@<TRIPOS>ATOM
      1 O19          0.0000     0.0000     0.0000 o          1 X90      -0.858800
      2 C21          1.3430     0.0000     0.0000 c          1 X90       0.890600
      3 O21          1.9460     0.0000     1.0460 o          1 X90      -0.858800
      4 C22          2.0960    -0.0000    -1.3040 c3         1 X90      -0.182400
      5 C23          3.6010    -0.0010    -1.0250 c3         1 X90      -0.064400
      6 C24          4.3650    -0.0010    -2.3490 c3         1 X90      -0.088400
      7 C25          5.8700    -0.0010    -2.0700 c3         1 X90      -0.081400
      8 C26          6.6350    -0.0020    -3.3940 c3         1 X90      -0.083400
      9 C27          8.1390    -0.0010    -3.1140 c3         1 X90      -0.082400
     10 C28          8.9050    -0.0020    -4.4390 c3         1 X90      -0.082400
     11 C29         10.4090    -0.0020    -4.1590 c3         1 X90      -0.082400
     12 C30         12.6790    -0.0030    -5.2050 c3         1 X90      -0.082400
     13 C31         13.4440    -0.0030    -6.5290 c3         1 X90      -0.082400
     14 C32         14.9480    -0.0040    -6.2490 c3         1 X90      -0.082400
     15 C33         15.7130    -0.0030    -7.5740 c3         1 X90      -0.082400
     16 C34         17.2170    -0.0040    -7.2940 c3         1 X90      -0.082400
     17 C35         17.9820    -0.0050    -8.6190 c3         1 X90      -0.084400
     18 C36         19.4870    -0.0040    -8.3390 c3         1 X90      -0.092100
     19 C39         11.1740    -0.0020    -5.4840 c3         1 X90      -0.082400
     20 H22          1.8340    -0.8850    -1.8720 hc         1 X90       0.026700
     21 H22A         1.8350     0.8840    -1.8730 hc         1 X90       0.026700
     22 H23          3.8620    -0.8860    -0.4570 hc         1 X90       0.044700
     23 H23A         3.8620     0.8830    -0.4560 hc         1 X90       0.044700
     24 H24          4.1040    -0.8850    -2.9180 hc         1 X90       0.028700
     25 H24A         4.1040     0.8840    -2.9170 hc         1 X90       0.028700
     26 H25          6.1310    -0.8860    -1.5010 hc         1 X90       0.038700
     27 H25A         6.1320     0.8830    -1.5020 hc         1 X90       0.038700
     28 H26          6.3730    -0.8870    -3.9620 hc         1 X90       0.036200
     29 H26A         6.3730     0.8820    -3.9630 hc         1 X90       0.036200
     30 H27          8.4010     0.8840    -2.5470 hc         1 X90       0.039700
     31 H27A         8.4010    -0.8850    -2.5460 hc         1 X90       0.039700
     32 H28          8.6440     0.8830    -5.0080 hc         1 X90       0.038700
     33 H28A         8.6430    -0.8860    -5.0070 hc         1 X90       0.038700
     34 H29         10.6700    -0.8870    -3.5910 hc         1 X90       0.039700
     35 H29A        10.6700     0.8820    -3.5910 hc         1 X90       0.039700
     36 H30         12.9400    -0.8870    -4.6360 hc         1 X90       0.040700
     37 H30A        12.9410     0.8820    -4.6370 hc         1 X90       0.040700
     38 H31         13.1820    -0.8880    -7.0970 hc         1 X90       0.040200
     39 H31A        13.1820     0.8810    -7.0970 hc         1 X90       0.040200
     40 H32         15.2100     0.8800    -5.6810 hc         1 X90       0.040700
     41 H32A        15.2100    -0.8890    -5.6820 hc         1 X90       0.040700
     42 H33         15.4510    -0.8880    -8.1420 hc         1 X90       0.040700
     43 H33A        15.4520     0.8810    -8.1410 hc         1 X90       0.040700
     44 H34         17.4790     0.8810    -6.7260 hc         1 X90       0.040700
     45 H34A        17.4790    -0.8880    -6.7260 hc         1 X90       0.040700
     46 H35         17.7210     0.8800    -9.1870 hc         1 X90       0.039700
     47 H35A        17.7210    -0.8890    -9.1860 hc         1 X90       0.039700
     48 H36         20.0280    -0.0050    -9.2770 hc         1 X90       0.031367
     49 H36A        19.7480     0.8810    -7.7720 hc         1 X90       0.031367
     50 H36B        19.7490    -0.8880    -7.7700 hc         1 X90       0.031367
     51 H39         10.9130    -0.8860    -6.0530 hc         1 X90       0.039700
     52 H39A        10.9130     0.8830    -6.0520 hc         1 X90       0.039700
@<TRIPOS>BOND
     1     2     1 1
     2     4     2 1
     3     2     3 1
     4     5     4 1
     5     4    20 1
     6     4    21 1
     7     6     5 1
     8     5    22 1
     9     5    23 1
    10     7     6 1
    11     6    24 1
    12     6    25 1
    13     8     7 1
    14     7    26 1
    15     7    27 1
    16     9     8 1
    17     8    28 1
    18     8    29 1
    19    10     9 1
    20     9    30 1
    21     9    31 1
    22    11    10 1
    23    10    32 1
    24    10    33 1
    25    19    11 1
    26    11    34 1
    27    11    35 1
    28    13    12 1
    29    12    19 1
    30    12    36 1
    31    12    37 1
    32    14    13 1
    33    13    38 1
    34    13    39 1
    35    15    14 1
    36    14    40 1
    37    14    41 1
    38    16    15 1
    39    15    42 1
    40    15    43 1
    41    17    16 1
    42    16    44 1
    43    16    45 1
    44    18    17 1
    45    17    46 1
    46    17    47 1
    47    18    48 1
    48    18    49 1
    49    18    50 1
    50    19    51 1
    51    19    52 1
@<TRIPOS>SUBSTRUCTURE
     1 X90         1 TEMP              0 ****  ****    0 ROOT
