@<TRIPOS>MOLECULE
X92
   54    56     1     0     0
SMALL
bcc


@<TRIPOS>ATOM
      1 CAK          0.0000     0.0000     0.0000 ca         1 X92      -0.100500
      2 CAI          1.3830     0.0000     0.0000 ca         1 X92      -0.116500
      3 CAG          2.0740     0.0000     1.1970 ca         1 X92      -0.144000
      4 CAH          1.3820     0.0010     2.3950 ca         1 X92      -0.116500
      5 CAJ          0.0000     0.0020     2.3950 ca         1 X92      -0.100500
      6 CAV         -0.6910     0.0020     1.1970 ca         1 X92      -0.040300
      7 CAM         -2.1980     0.0090     1.1970 c3         1 X92       0.002900
      8 CAP         -2.7150    -1.4310     1.1950 c3         1 X92       0.004600
      9 CAX         -4.2450    -1.4240     1.1950 c3         1 X92       0.001500
     10 CAS         -4.7540    -2.8370     1.3160 c          1 X92       0.968600
     11 OAE         -4.4340    -3.5760     2.3900 o          1 X92      -0.898300
     12 OAB         -5.4510    -3.3060     0.4470 o          1 X92      -0.898300
     13 HAJ         -0.5410     0.0370     3.3320 ha         1 X92       0.112500
     14 HAH          1.9230     0.0050     3.3330 ha         1 X92       0.085000
     15 HAG          3.1570     0.0050     1.1970 ha         1 X92       0.082000
     16 HAI          1.9250     0.0000    -0.9380 ha         1 X92       0.085000
     17 HAK         -0.5410     0.0490    -0.9370 ha         1 X92       0.112500
     18 HAM1        -2.5570     0.5210     2.0810 hc         1 X92       0.027700
     19 HAM2        -2.5560     0.5220     0.3120 hc         1 X92       0.027700
     20 HAP1        -2.3560    -1.9440     2.0790 hc         1 X92       0.016700
     21 HAP2        -2.3560    -1.9420     0.3100 hc         1 X92       0.016700
     22 HAX         -4.6040    -0.8380     2.0320 h1         1 X92       0.044700
     23 N           -4.7320    -0.8350    -0.0600 n7         1 X92      -0.609200
     24 CA          -6.0760    -0.2680     0.1120 c3         1 X92      -0.005500
     25 CB          -5.9640     1.1550     0.6600 c3         1 X92      -0.006100
     26 C           -6.7820    -0.2400    -1.2190 c          1 X92       0.643100
     27 O           -6.1840    -0.5420    -2.2300 o          1 X92      -0.707100
     28 H           -4.7550    -1.5380    -0.7720 hn         1 X92       0.297800
     29 HA          -6.6390    -0.8800     0.8060 h1         1 X92       0.149700
     30 HB1C        -5.0420     1.6050     0.3120 hc         1 X92       0.003033
     31 HB2C        -5.9660     1.1260     1.7430 hc         1 X92       0.003033
     32 HB3C        -6.8050     1.7430     0.3130 hc         1 X92       0.003033
     33 NBB         -8.0790     0.1230    -1.2880 n          1 X92      -0.136800
     34 CBA         -8.8980     0.1470    -2.5080 c3         1 X92       0.044700
     35 CAO         -9.0700    -1.3040    -3.0190 c3         1 X92      -0.047400
     36 CAL        -10.4480    -1.2700    -3.7210 c3         1 X92      -0.029400
     37 CAN        -11.3040    -0.3490    -2.8280 c3         1 X92      -0.022400
     38 CAY        -10.3280     0.5770    -2.0880 c3         1 X92      -0.071700
     39 CAQ        -10.3630     0.2460    -0.5750 c3         1 X92      -0.020400
     40 CAZ         -8.9090     0.5540    -0.1480 c3         1 X92      -0.091300
     41 CAT         -8.5480    -0.2280     1.0890 c          1 X92       0.962600
     42 OAF         -8.3230     0.4140     2.2460 o          1 X92      -0.864800
     43 OAC         -8.4610    -1.4320     1.0390 o          1 X92      -0.864800
     44 HBA         -8.4830     0.7990    -3.2660 h1         1 X92       0.015700
     45 HAZ         -8.7870     1.6170     0.0230 h1         1 X92       0.024700
     46 HAO1        -9.0820    -2.0010    -2.1890 hc         1 X92       0.045200
     47 HAO2        -8.2880    -1.5540    -3.7260 hc         1 X92       0.045200
     48 HAY        -10.5180     1.6250    -2.2860 hc         1 X92       0.015700
     49 HAL1       -10.3550    -0.8520    -4.7160 hc         1 X92      -0.002800
     50 HAL2       -10.8770    -2.2640    -3.7580 hc         1 X92      -0.002800
     51 HAN1       -11.8640    -0.9410    -2.1150 hc         1 X92       0.001200
     52 HAN2       -11.9770     0.2380    -3.4420 hc         1 X92       0.001200
     53 HAQ1       -10.5970    -0.8000    -0.4150 hc         1 X92       0.025200
     54 HAQ2       -11.0610     0.8910    -0.0560 hc         1 X92       0.025200
@<TRIPOS>BOND
     1     1     2 ar  
     2     1     6 ar  
     3     1    17 1   
     4     2     3 ar  
     5     2    16 1   
     6     3     4 ar  
     7     3    15 1   
     8     4     5 ar  
     9     4    14 1   
    10     5     6 ar  
    11     5    13 1   
    12     6     7 1   
    13     7     8 1   
    14     7    18 1   
    15     7    19 1   
    16     8     9 1   
    17     8    20 1   
    18     8    21 1   
    19     9    10 1   
    20     9    22 1   
    21     9    23 1   
    22    10    11 1   
    23    10    12 1   
    24    23    24 1   
    25    23    28 1   
    26    24    25 1   
    27    24    26 1   
    28    24    29 1   
    29    25    30 1   
    30    25    31 1   
    31    25    32 1   
    32    26    27 2   
    33    26    33 1   
    34    33    34 1   
    35    33    40 1   
    36    34    35 1   
    37    34    38 1   
    38    34    44 1   
    39    35    36 1   
    40    35    46 1   
    41    35    47 1   
    42    36    37 1   
    43    36    49 1   
    44    36    50 1   
    45    37    38 1   
    46    37    51 1   
    47    37    52 1   
    48    38    39 1   
    49    38    48 1   
    50    39    40 1   
    51    39    53 1   
    52    39    54 1   
    53    40    41 1   
    54    40    45 1   
    55    41    42 1   
    56    41    43 1   
@<TRIPOS>SUBSTRUCTURE
     1 X92         1 TEMP              0 ****  ****    0 ROOT
