@<TRIPOS>MOLECULE
X93
   57    59     1     0     0
SMALL
bcc


@<TRIPOS>ATOM
      1 CAY          1.5310     0.0000     0.0000 c3         1 X93       0.002500
      2 CAQ          0.0000     0.0000     0.0000 c3         1 X93       0.005600
      3 CAN         -0.5090     0.1260    -1.4370 c3         1 X93      -0.000100
      4 CAW         -2.0160     0.1260    -1.4380 ca         1 X93      -0.038300
      5 CAJ         -2.7080     1.3180    -1.3330 ca         1 X93      -0.101000
      6 CAK         -2.7070    -1.0670    -1.5480 ca         1 X93      -0.101000
      7 CAH         -4.0900     1.3170    -1.3340 ca         1 X93      -0.117500
      8 CAI         -4.0890    -1.0680    -1.5490 ca         1 X93      -0.117500
      9 CAG         -4.7810     0.1240    -1.4380 ca         1 X93      -0.145000
     10 CAT          2.0320     0.0000     1.4210 c          1 X93       0.968600
     11 OAB          2.7270    -0.9060     1.8170 o          1 X93      -0.907800
     12 OAE          1.7080     1.0060     2.2490 o          1 X93      -0.907800
     13 N            2.0200    -1.1990    -0.6920 n7         1 X93      -0.578200
     14 CA           3.3680    -0.9790    -1.2360 c3         1 X93       0.024500
     15 C            3.5970    -1.9050    -2.4020 c          1 X93       0.640100
     16 O            2.8830    -2.8730    -2.5570 o          1 X93      -0.709100
     17 CB           4.4080    -1.2620    -0.1490 c3         1 X93      -0.040100
     18 NBC          4.5940    -1.6560    -3.2740 n          1 X93      -0.121800
     19 CBB          4.8840    -2.3990    -4.4900 c3         1 X93       0.037700
     20 CAP          3.7220    -3.0480    -5.2130 c3         1 X93      -0.045400
     21 CAM          4.2970    -3.7940    -6.4280 c3         1 X93      -0.021400
     22 CAL          5.0780    -2.8520    -7.3400 c3         1 X93      -0.024400
     23 CAO          6.1770    -2.1040    -6.5690 c3         1 X93      -0.013400
     24 CAZ          5.4990    -1.3400    -5.4430 c3         1 X93      -0.085700
     25 CAR          6.4500    -0.6200    -4.4750 c3         1 X93      -0.006400
     26 CBA          5.5980    -0.5710    -3.1770 c3         1 X93      -0.091300
     27 CAU          4.9040     0.7620    -3.0660 c          1 X93       0.967600
     28 OAF          3.8160     0.9200    -3.5670 o          1 X93      -0.882800
     29 OAC          5.4950     1.7750    -2.4120 o          1 X93      -0.882800
     30 HAY          1.8920     0.8850    -0.5100 h1         1 X93       0.055700
     31 HAQ1        -0.3610    -0.9260     0.4310 hc         1 X93       0.013700
     32 HAQ2        -0.3610     0.8360     0.5860 hc         1 X93       0.013700
     33 HAN1        -0.1490     1.0530    -1.8680 hc         1 X93       0.038200
     34 HAN2        -0.1470    -0.7100    -2.0230 hc         1 X93       0.038200
     35 HAJ         -2.1670     2.2530    -1.2510 ha         1 X93       0.114000
     36 HAK         -2.1650    -2.0010    -1.6350 ha         1 X93       0.114000
     37 HAH         -4.6330     2.2510    -1.2490 ha         1 X93       0.084500
     38 HAI         -4.6300    -2.0030    -1.6340 ha         1 X93       0.084500
     39 HAG         -5.8640     0.1240    -1.4390 ha         1 X93       0.081000
     40 H            2.0390    -1.9690    -0.0530 hn         1 X93       0.276800
     41 HA           3.4620     0.0480    -1.5660 h1         1 X93       0.108700
     42 HB1C         4.0290    -2.0220     0.5240 hc         1 X93       0.017700
     43 HB2C         5.3240    -1.6120    -0.6080 hc         1 X93       0.017700
     44 HB3C         4.6060    -0.3540     0.4070 hc         1 X93       0.017700
     45 HBB          5.6290    -3.1550    -4.2730 h1         1 X93       0.002700
     46 HBA          6.2340    -0.7340    -2.3150 h1         1 X93       0.036700
     47 HAP1         3.2240    -3.7490    -4.5540 hc         1 X93       0.045700
     48 HAP2         3.0250    -2.2870    -5.5450 hc         1 X93       0.045700
     49 HAZ          4.7390    -0.6670    -5.8220 hc         1 X93       0.068700
     50 HAM1         3.4830    -4.2340    -6.9900 hc         1 X93      -0.002800
     51 HAM2         4.9600    -4.5770    -6.0800 hc         1 X93      -0.002800
     52 HAL1         5.5360    -3.4290    -8.1350 hc         1 X93      -0.002300
     53 HAL2         4.3940    -2.1290    -7.7700 hc         1 X93      -0.002300
     54 HAO1         6.6830    -1.4110    -7.2300 hc         1 X93       0.002700
     55 HAO2         6.8840    -2.8140    -6.1570 hc         1 X93       0.002700
     56 HAR1         7.3540    -1.1980    -4.3210 hc         1 X93       0.011200
     57 HAR2         6.6750     0.3800    -4.8270 hc         1 X93       0.011200
@<TRIPOS>BOND
     1     1     2 1   
     2     1    10 1   
     3     1    13 1   
     4     1    30 1   
     5     2     3 1   
     6     2    31 1   
     7     2    32 1   
     8     3     4 1   
     9     3    33 1   
    10     3    34 1   
    11     4     5 ar  
    12     4     6 ar  
    13     5     7 ar  
    14     5    35 1   
    15     6     8 ar  
    16     6    36 1   
    17     7     9 ar  
    18     7    37 1   
    19     8     9 ar  
    20     8    38 1   
    21     9    39 1   
    22    10    11 1   
    23    10    12 1   
    24    13    14 1   
    25    13    40 1   
    26    14    15 1   
    27    14    17 1   
    28    14    41 1   
    29    15    16 2   
    30    15    18 1   
    31    17    42 1   
    32    17    43 1   
    33    17    44 1   
    34    18    19 1   
    35    18    26 1   
    36    19    20 1   
    37    19    24 1   
    38    19    45 1   
    39    20    21 1   
    40    20    47 1   
    41    20    48 1   
    42    21    22 1   
    43    21    50 1   
    44    21    51 1   
    45    22    23 1   
    46    22    52 1   
    47    22    53 1   
    48    23    24 1   
    49    23    54 1   
    50    23    55 1   
    51    24    25 1   
    52    24    49 1   
    53    25    26 1   
    54    25    56 1   
    55    25    57 1   
    56    26    27 1   
    57    26    46 1   
    58    27    28 1   
    59    27    29 1   
@<TRIPOS>SUBSTRUCTURE
     1 X93         1 TEMP              0 ****  ****    0 ROOT
