@<TRIPOS>MOLECULE
molecule
   50    51     1     0     0
SMALL
bcc


@<TRIPOS>ATOM
      1 CAA          0.0000     0.0000     0.0000 c3         1 X94      -0.093100
      2 CAH          1.5300     0.0000     0.0000 c3         1 X94      -0.085400
      3 CAK          2.0400     0.0000     1.4420 c3         1 X94      -0.044400
      4 CAU          3.5700    -0.0000     1.4420 c3         1 X94       0.060500
      5 CAP          4.0720     0.1250     2.8570 c          1 X94       0.869600
      6 OAF          3.7480     1.2000     3.5930 o          1 X94      -0.868800
      7 OAC          4.7670    -0.7430     3.3300 o          1 X94      -0.868800
      8 N            4.0600    -1.2550     0.8570 n7         1 X94      -0.795200
      9 CA           5.4070    -1.0850     0.2970 c3         1 X94       0.094500
     10 CB           6.4470    -1.2710     1.4040 c3         1 X94      -0.105100
     11 C            5.6350    -2.1090    -0.7850 c          1 X94       0.718100
     12 O            5.0850    -3.1890    -0.7230 o          1 X94      -0.669100
     13 NAX          6.4490    -1.8260    -1.8210 n          1 X94      -0.471800
     14 CAW          6.7180    -2.6960    -2.9690 c3         1 X94       0.131700
     15 CAL          5.8930    -1.0080    -4.6530 c3         1 X94      -0.085400
     16 CAI          4.7970    -1.9900    -5.0590 c3         1 X94      -0.076400
     17 CAJ          4.3580    -2.7760    -3.8190 c3         1 X94      -0.072400
     18 CAM          5.5500    -3.5910    -3.3170 c3         1 X94      -0.092400
     19 CAT          7.1180    -1.7540    -4.1190 c3         1 X94      -0.087700
     20 CAN          7.9750    -0.7070    -3.3450 c3         1 X94      -0.075400
     21 CAV          7.2220    -0.5840    -2.0010 c3         1 X94      -0.004300
     22 CAQ          6.2900     0.6000    -2.0380 c          1 X94       0.877600
     23 OAD          6.7830     1.8380    -2.1960 o          1 X94      -0.831800
     24 OAG          5.0990     0.4340    -1.9260 o          1 X94      -0.831800
     25 HAA1        -0.3610     0.0110    -1.0210 hc         1 X94       0.009367
     26 HAA2        -0.3610    -0.8900     0.5010 hc         1 X94       0.009367
     27 HAA3        -0.3610     0.8790     0.5200 hc         1 X94       0.009367
     28 HAH1         1.8910     0.8850    -0.5110 hc         1 X94       0.057200
     29 HAH2         1.8910    -0.8840    -0.5110 hc         1 X94       0.057200
     30 HAK1         1.6790     0.8850     1.9520 hc         1 X94       0.031700
     31 HAK2         1.6790    -0.8840     1.9520 hc         1 X94       0.031700
     32 HAU          3.9310     0.8360     0.8550 h1         1 X94       0.078700
     33 H            4.0790    -1.9660     1.5610 hn         1 X94       0.361800
     34 HA           5.5000    -0.0900    -0.1220 h1         1 X94       0.125700
     35 HB1C         6.1120    -2.0400     2.0890 hc         1 X94       0.034700
     36 HB2C         6.5730    -0.3390     1.9410 hc         1 X94       0.034700
     37 HB3C         7.3930    -1.5660     0.9650 hc         1 X94       0.034700
     38 HAW          7.5680    -3.3240    -2.7300 h1         1 X94       0.010700
     39 HAV          7.9330    -0.4750    -1.1910 h1         1 X94       0.048700
     40 HAM1         5.8550    -4.2840    -4.0920 hc         1 X94       0.045700
     41 HAM2         5.2540    -4.1450    -2.4350 hc         1 X94       0.045700
     42 HAT          7.6790    -2.2570    -4.8970 hc         1 X94       0.027700
     43 HAJ1         3.5460    -3.4440    -4.0800 hc         1 X94       0.053700
     44 HAJ2         4.0380    -2.0880    -3.0460 hc         1 X94       0.053700
     45 HAI1         3.9510    -1.4440    -5.4600 hc         1 X94       0.012700
     46 HAI2         5.1810    -2.6740    -5.8050 hc         1 X94       0.012700
     47 HAL1         6.1820    -0.4210    -5.5160 hc         1 X94       0.067700
     48 HAL2         5.5120    -0.3500    -3.8800 hc         1 X94       0.067700
     49 HAN1         7.9830     0.2430    -3.8670 hc         1 X94       0.041700
     50 HAN2         8.9810    -1.0760    -3.1880 hc         1 X94       0.041700
@<TRIPOS>BOND
     1     1     2 1
     2     2     3 1
     3     3     4 1
     4     4     5 1
     5     4     8 1
     6     5     6 1
     7     5     7 1
     8     8     9 1
     9     9    10 1
    10     9    11 1
    11    11    12 2
    12    11    13 1
    13    13    14 1
    14    13    21 1
    15    14    18 1
    16    14    19 1
    17    18    17 1
    18    17    16 1
    19    16    15 1
    20    15    19 1
    21    19    20 1
    22    20    21 1
    23    21    22 1
    24    22    24 1
    25    22    23 1
    26     1    25 1
    27     1    26 1
    28     1    27 1
    29     2    28 1
    30     2    29 1
    31     3    30 1
    32     3    31 1
    33     4    32 1
    34     8    33 1
    35     9    34 1
    36    10    35 1
    37    10    36 1
    38    10    37 1
    39    14    38 1
    40    21    39 1
    41    18    40 1
    42    18    41 1
    43    19    42 1
    44    17    43 1
    45    17    44 1
    46    16    45 1
    47    16    46 1
    48    15    47 1
    49    15    48 1
    50    20    49 1
    51    20    50 1
@<TRIPOS>SUBSTRUCTURE
     1 X94         1 TEMP              0 ****  ****    0 ROOT
