@<TRIPOS>MOLECULE
molecule
   69    71     1     0     0
SMALL
bcc


@<TRIPOS>ATOM
      1 C            0.0000     0.0000     0.0000 c          1 X95       0.898600
      2 OXT         -0.6720    -1.1610     0.0430 o          1 X95      -0.850800
      3 CA           1.5070     0.0000     0.0000 c3         1 X95       0.123500
      4 CB           2.0170     0.0000     1.4430 c3         1 X95      -0.255400
      5 CAG          4.9670    -0.1280     5.4710 ca         1 X95      -0.154000
      6 CAH          4.6370    -1.3200     4.8550 ca         1 X95      -0.136500
      7 CAI          4.8350     1.0660     4.7850 ca         1 X95      -0.136500
      8 CAL          4.1750    -1.3190     3.5520 ca         1 X95      -0.124000
      9 CAT          3.5420    -0.1270     1.4440 c3         1 X95      -0.014100
     10 CBD          4.0440    -0.1270     2.8650 ca         1 X95      -0.043300
     11 CAM          4.3740     1.0650     3.4810 ca         1 X95      -0.124000
     12 O           -0.6040     1.0460    -0.0440 o          1 X95      -0.850800
     13 NAA         -1.1410     6.1880    -3.5950 nz         1 X95      -0.920600
     14 N            1.9970     1.1990    -0.6930 n7         1 X95      -0.794200
     15 CAQ         -0.9910     4.8930    -2.9190 c3         1 X95       0.064800
     16 CAR          0.3760     4.2950    -3.2590 c3         1 X95      -0.119400
     17 CAU          1.8850     2.3450    -2.8540 c3         1 X95      -0.056400
     18 CBC          3.3210     0.3470    -2.5440 c          1 X95       0.637100
     19 CBI          2.0190     0.9950    -2.1480 c3         1 X95       0.087500
     20 OAC          5.7610    -2.8490    -4.3650 o          1 X95      -0.833300
     21 OAF          3.6840    -2.5500    -3.6740 o          1 X95      -0.833300
     22 CAJ          8.6590     3.8290    -5.3100 ca         1 X95      -0.112000
     23 CAK          8.9150     2.4860    -5.0690 ca         1 X95      -0.174000
     24 CAN          7.4020     4.2490    -5.6880 ca         1 X95      -0.167000
     25 CAO          7.9230     1.5570    -5.2020 ca         1 X95      -0.051000
     26 CAP          4.4720     2.1770    -6.1710 cc         1 X95      -0.148100
     27 CAW          5.1440    -0.2300    -5.6830 c3         1 X95      -0.012200
     28 NAX          3.5650     0.0630    -3.8390 ns         1 X95      -0.547900
     29 CBB          4.7160    -2.0610    -4.0670 c          1 X95       0.881600
     30 CBE          5.3800     1.2530    -5.8170 cd         1 X95      -0.095400
     31 CBF          6.3770     3.3180    -5.8300 ca         1 X95      -0.042200
     32 CBG          6.6420     1.9590    -5.5840 ca         1 X95      -0.092800
     33 CBJ          4.8310    -0.5670    -4.2250 c3         1 X95       0.007700
     34 NXZ          5.0500     3.4170    -6.1850 na         1 X95      -0.200400
     35 HA           1.8680    -0.8850    -0.5100 h1         1 X95       0.034700
     36 HB1C         1.4250    -0.3750     2.2690 hc         1 X95       0.109700
     37 HB2C         2.1360    -0.8800     0.8230 hc         1 X95       0.109700
     38 HAT1         3.9750     0.7090     0.9080 hc         1 X95       0.053700
     39 HAT2         3.8270    -1.0530     0.9600 hc         1 X95       0.053700
     40 HAG          5.3290    -0.1280     6.4930 ha         1 X95       0.109000
     41 HAH          4.7400    -2.2540     5.3930 ha         1 X95       0.113000
     42 HAI          5.0940     2.0000     5.2680 ha         1 X95       0.113000
     43 HAL          3.9160    -2.2530     3.0690 ha         1 X95       0.134000
     44 HAM          4.2700     2.0000     2.9430 ha         1 X95       0.134000
     45 H            2.9200     1.4160    -0.3720 hn         1 X95       0.359800
     46 HBI          1.1940     0.3540    -2.4350 h1         1 X95       0.098700
     47 HAA1        -0.2840     6.6460    -3.8360 hn         1 X95       0.482133
     48 HAA2        -1.3770     5.3970    -4.1610 hn         1 X95       0.482133
     49 HAQ1        -1.0670     5.0330    -1.8470 hx         1 X95       0.120200
     50 HAQ2        -1.7720     4.2190    -3.2510 hx         1 X95       0.120200
     51 HAR1         1.1570     4.9690    -2.9260 hc         1 X95       0.052700
     52 HAR2         0.4650     4.1400    -4.3270 hc         1 X95       0.052700
     53 HAS1        -0.2630     2.2810    -2.8690 hc         1 X95       0.094700
     54 HAS2         0.4310     3.1080    -1.4680 hc         1 X95       0.094700
     55 HAU1         2.6660     3.0120    -2.5090 hc         1 X95       0.031700
     56 HAU2         1.9780     2.2030    -3.9240 hc         1 X95       0.031700
     57 HAJ          9.4560     4.5550    -5.2000 ha         1 X95       0.115000
     58 HAK          9.9090     2.1730    -4.7730 ha         1 X95       0.124000
     59 HAN          7.2130     5.2990    -5.8730 ha         1 X95       0.106000
     60 HAO          8.1300     0.5100    -5.0130 ha         1 X95       0.155000
     61 HAP          3.4370     1.9710    -6.4130 h4         1 X95       0.153000
     62 HXZ          4.5790     4.2680    -6.4170 hn         1 X95       0.270700
     63 HAW1         6.0320    -0.7660    -5.9950 hc         1 X95       0.062200
     64 HAW2         4.3090    -0.5200    -6.3080 hc         1 X95       0.062200
     65 HBJ          5.6270    -0.1970    -3.5900 h1         1 X95       0.079700
     66 HAX          2.8580     0.2270    -4.5280 hn         1 X95       0.287500
     67 CAS          0.5180     2.9540    -2.5370 c3         1 X95      -0.072400
     68 OAD          4.1490     0.0820    -1.6980 o          1 X95      -0.620100
     69 HAA3        -1.9160     6.7420    -3.2900 hn         1 X95       0.482133
@<TRIPOS>BOND
     1     1    12 1
     2     1     3 1
     3     1     2 1
     4    14     3 1
     5    14    19 1
     6     3     4 1
     7     4     9 1
     8    13    15 1
     9    20    29 1
    10    68    18 2
    11    21    29 1
    12     5     6 ar
    13     5     7 ar
    14     6     8 ar
    15     7    11 ar
    16    22    23 ar
    17    22    24 ar
    18    23    25 ar
    19     8    10 ar
    20    11    10 ar
    21    24    31 ar
    22    25    32 ar
    23    26    30 2
    24    26    34 1
    25    15    16 1
    26    16    67 1
    27    67    17 1
    28     9    10 1
    29    17    19 1
    30    27    30 1
    31    27    33 1
    32    28    18 1
    33    28    33 1
    34    29    33 1
    35    18    19 1
    36    30    32 1
    37    31    32 ar
    38    31    34 1
    39     3    35 1
    40    14    45 1
    41    19    46 1
    42     4    36 1
    43     4    37 1
    44     9    38 1
    45     9    39 1
    46    13    47 1
    47    13    48 1
    48    15    49 1
    49    15    50 1
    50     5    40 1
    51     6    41 1
    52     7    42 1
    53     8    43 1
    54    11    44 1
    55    22    57 1
    56    23    58 1
    57    24    59 1
    58    25    60 1
    59    26    61 1
    60    34    62 1
    61    16    51 1
    62    16    52 1
    63    67    53 1
    64    67    54 1
    65    17    55 1
    66    17    56 1
    67    27    63 1
    68    27    64 1
    69    33    65 1
    70    28    66 1
    71    69    13 1
@<TRIPOS>SUBSTRUCTURE
     1 X95         1 TEMP              0 ****  ****    0 ROOT
