@<TRIPOS>MOLECULE
X95
   69    71     1     0     0
SMALL
bcc


@<TRIPOS>ATOM
      1 C            0.0000     0.0000     0.0000 c          1 X95       0.980600
      2 OXT         -0.6720    -1.1610     0.0430 o          1 X95      -0.901800
      3 CA           1.5070     0.0000     0.0000 c3         1 X95       0.097500
      4 CB           2.0170     0.0000     1.4430 c3         1 X95      -0.253400
      5 CAG          4.9670    -0.1280     5.4710 ca         1 X95      -0.132000
      6 CAH          4.6370    -1.3200     4.8550 ca         1 X95      -0.112500
      7 CAI          4.8350     1.0660     4.7850 ca         1 X95      -0.112500
      8 CAL          4.1750    -1.3190     3.5520 ca         1 X95      -0.096500
      9 CAT          3.5420    -0.1270     1.4440 c3         1 X95       0.056900
     10 CBD          4.0440    -0.1270     2.8650 ca         1 X95      -0.046300
     11 CAM          4.3740     1.0650     3.4810 ca         1 X95      -0.096500
     12 O           -0.6040     1.0460    -0.0440 o          1 X95      -0.901800
     13 NAA         -1.1410     6.1880    -3.5950 nz         1 X95      -0.109600
     14 N            1.9970     1.1990    -0.6930 n7         1 X95      -0.583200
     15 CAQ         -0.9910     4.8930    -2.9190 c3         1 X95      -0.031200
     16 CAR          0.3760     4.2950    -3.2590 c3         1 X95      -0.041400
     17 CAU          1.8850     2.3450    -2.8540 c3         1 X95      -0.007400
     18 CBC          3.3210     0.3470    -2.5440 c          1 X95       0.549100
     19 CBI          2.0190     0.9950    -2.1480 c3         1 X95       0.038500
     20 OAC          5.7610    -2.8490    -4.3650 o          1 X95      -0.882300
     21 OAF          3.6840    -2.5500    -3.6740 o          1 X95      -0.882300
     22 CAJ          8.6590     3.8290    -5.3100 ca         1 X95      -0.087000
     23 CAK          8.9150     2.4860    -5.0690 ca         1 X95      -0.153000
     24 CAN          7.4020     4.2490    -5.6880 ca         1 X95      -0.132000
     25 CAO          7.9230     1.5570    -5.2020 ca         1 X95      -0.011000
     26 CAP          4.4720     2.1770    -6.1710 cc         1 X95      -0.318100
     27 CAW          5.1440    -0.2300    -5.6830 c3         1 X95       0.058800
     28 NAX          3.5650     0.0630    -3.8390 ns         1 X95      -0.138900
     29 CBB          4.7160    -2.0610    -4.0670 c          1 X95       0.970600
     30 CBE          5.3800     1.2530    -5.8170 cd         1 X95      -0.086400
     31 CBF          6.3770     3.3180    -5.8300 ca         1 X95      -0.227200
     32 CBG          6.6420     1.9590    -5.5840 ca         1 X95      -0.091800
     33 CBJ          4.8310    -0.5670    -4.2250 c3         1 X95      -0.101300
     34 NXZ          5.0500     3.4170    -6.1850 na         1 X95       0.326600
     35 HA           1.8680    -0.8850    -0.5100 h1         1 X95       0.025700
     36 HB1C         1.4250    -0.3750     2.2690 hc         1 X95       0.089700
     37 HB2C         2.1360    -0.8800     0.8230 hc         1 X95       0.089700
     38 HAT1         3.9750     0.7090     0.9080 hc         1 X95       0.027200
     39 HAT2         3.8270    -1.0530     0.9600 hc         1 X95       0.027200
     40 HAG          5.3290    -0.1280     6.4930 ha         1 X95       0.087000
     41 HAH          4.7400    -2.2540     5.3930 ha         1 X95       0.089500
     42 HAI          5.0940     2.0000     5.2680 ha         1 X95       0.089500
     43 HAL          3.9160    -2.2530     3.0690 ha         1 X95       0.109000
     44 HAM          4.2700     2.0000     2.9430 ha         1 X95       0.109000
     45 H            2.9200     1.4160    -0.3720 hn         1 X95       0.272800
     46 HBI          1.1940     0.3540    -2.4350 h1         1 X95       0.073700
     47 HAA1        -0.2840     6.6460    -3.8360 hn         1 X95       0.269133
     48 HAA2        -1.3770     5.3970    -4.1610 hn         1 X95       0.269133
     49 HAQ1        -1.0670     5.0330    -1.8470 hx         1 X95       0.088200
     50 HAQ2        -1.7720     4.2190    -3.2510 hx         1 X95       0.088200
     51 HAR1         1.1570     4.9690    -2.9260 hc         1 X95       0.020700
     52 HAR2         0.4650     4.1400    -4.3270 hc         1 X95       0.020700
     53 HAS1        -0.2630     2.2810    -2.8690 hc         1 X95       0.067200
     54 HAS2         0.4310     3.1080    -1.4680 hc         1 X95       0.067200
     55 HAU1         2.6660     3.0120    -2.5090 hc         1 X95       0.002700
     56 HAU2         1.9780     2.2030    -3.9240 hc         1 X95       0.002700
     57 HAJ          9.4560     4.5550    -5.2000 ha         1 X95       0.088000
     58 HAK          9.9090     2.1730    -4.7730 ha         1 X95       0.100000
     59 HAN          7.2130     5.2990    -5.8730 ha         1 X95       0.084000
     60 HAO          8.1300     0.5100    -5.0130 ha         1 X95       0.125000
     61 HAP          3.4370     1.9710    -6.4130 h4         1 X95       0.134000
     62 HXZ          4.5790     4.2680    -6.4170 hn         1 X95       0.092700
     63 HAW1         6.0320    -0.7660    -5.9950 hc         1 X95       0.032200
     64 HAW2         4.3090    -0.5200    -6.3080 hc         1 X95       0.032200
     65 HBJ          5.6270    -0.1970    -3.5900 h1         1 X95       0.060700
     66 HAX          2.8580     0.2270    -4.5280 hn         1 X95       0.148500
     67 CAS          0.5180     2.9540    -2.5370 c3         1 X95      -0.033400
     68 OAD          4.1490     0.0820    -1.6980 o          1 X95      -0.660100
     69 HAA3        -1.9160     6.7420    -3.2900 hn         1 X95       0.269133
@<TRIPOS>BOND
     1     1     2 1   
     2     1     3 1   
     3     1    12 1   
     4     3     4 1   
     5     3    14 1   
     6     3    35 1   
     7     4     9 1   
     8     4    36 1   
     9     4    37 1   
    10     5     6 ar  
    11     5     7 ar  
    12     5    40 1   
    13     6     8 ar  
    14     6    41 1   
    15     7    11 ar  
    16     7    42 1   
    17     8    10 ar  
    18     8    43 1   
    19     9    10 1   
    20     9    38 1   
    21     9    39 1   
    22    10    11 ar  
    23    11    44 1   
    24    13    15 1   
    25    13    47 1   
    26    13    48 1   
    27    13    69 1   
    28    14    19 1   
    29    14    45 1   
    30    15    16 1   
    31    15    49 1   
    32    15    50 1   
    33    16    51 1   
    34    16    52 1   
    35    16    67 1   
    36    17    19 1   
    37    17    55 1   
    38    17    56 1   
    39    17    67 1   
    40    18    19 1   
    41    18    28 1   
    42    18    68 2   
    43    19    46 1   
    44    20    29 1   
    45    21    29 1   
    46    22    23 ar  
    47    22    24 ar  
    48    22    57 1   
    49    23    25 ar  
    50    23    58 1   
    51    24    31 ar  
    52    24    59 1   
    53    25    32 ar  
    54    25    60 1   
    55    26    30 2   
    56    26    34 1   
    57    26    61 1   
    58    27    30 1   
    59    27    33 1   
    60    27    63 1   
    61    27    64 1   
    62    28    33 1   
    63    28    66 1   
    64    29    33 1   
    65    30    32 1   
    66    31    32 ar  
    67    31    34 1   
    68    33    65 1   
    69    34    62 1   
    70    53    67 1   
    71    54    67 1   
@<TRIPOS>SUBSTRUCTURE
     1 X95         1 TEMP              0 ****  ****    0 ROOT
