@<TRIPOS>MOLECULE
molecule
   40    41     1     0     0
SMALL
bcc


@<TRIPOS>ATOM
      1 C1           0.0000     0.0000     0.0000 ca         1 X96      -0.185200
      2 N1          -0.7350     0.0010    -1.2840 no         1 X96       0.292200
      3 O1          -0.1230    -0.0000    -2.3370 o          1 X96      -0.168000
      4 C2           1.3770     0.0000     0.0000 ca         1 X96      -0.010000
      5 N2           4.2280    -0.1220     0.0620 nz         1 X96      -0.677400
      6 O2          -1.9540     0.0000    -1.2890 o          1 X96      -0.168000
      7 C3           2.0750     0.0000     1.2110 ca         1 X96      -0.311600
      8 N3           2.0420     0.0030     3.6320 nu         1 X96      -0.777600
      9 O3           4.1520     0.1080     2.2690 o          1 X96      -0.484100
     10 C4           1.3620     0.0010     2.4210 ca         1 X96       0.309600
     11 N4           4.2560    -0.1350    10.5870 nz         1 X96      -0.809600
     12 C5          -0.0270     0.0020     2.4000 ca         1 X96      -0.210000
     13 C6          -0.7010     0.0060     1.1960 ca         1 X96       0.038000
     14 C7           3.5480    -0.0000     1.2200 c          1 X96       0.537700
     15 C8           1.2990    -0.1190     4.8880 c3         1 X96       0.262100
     16 C9           2.2640    -0.0920     6.0460 ca         1 X96      -0.083300
     17 C10          2.6060     1.1120     6.6320 ca         1 X96      -0.094500
     18 C11          3.4910     1.1370     7.6950 ca         1 X96      -0.097500
     19 C12          4.0340    -0.0420     8.1700 ca         1 X96      -0.175300
     20 C13          3.6910    -1.2460     7.5840 ca         1 X96      -0.097500
     21 C14          2.8030    -1.2710     6.5250 ca         1 X96      -0.094500
     22 C15          4.9990    -0.0140     9.3260 c3         1 X96       0.158100
     23 H2           1.9200    -0.0010    -0.9380 ha         1 X96       0.149000
     24 HN2          5.2100    -0.1470     0.2530 hn         1 X96       0.484467
     25 HN2A         4.0230     0.6590    -0.5300 hn         1 X96       0.484467
     26 HN3          3.0410     0.0500     3.6440 hn         1 X96       0.480800
     27 HN4          4.8930    -0.0800    11.3570 hn         1 X96       0.460133
     28 HN4A         3.5880     0.6080    10.6540 hn         1 X96       0.460133
     29 H5          -0.5820     0.0050     3.3300 ha         1 X96       0.175000
     30 H6          -1.7840     0.0060     1.1850 ha         1 X96       0.200000
     31 H8           0.6030     0.7060     4.9780 h1         1 X96       0.073700
     32 H8A          0.7530    -1.0550     4.8950 h1         1 X96       0.073700
     33 H10          2.1500     2.0320     6.2850 ha         1 X96       0.163000
     34 H11          3.7800     2.0830     8.1350 ha         1 X96       0.150500
     35 H13          4.1420    -2.1670     7.9340 ha         1 X96       0.150500
     36 H14          2.5110    -2.2170     6.0850 ha         1 X96       0.163000
     37 H15          5.6940    -0.8390     9.2360 hx         1 X96       0.118200
     38 H15A         5.5450     0.9220     9.3180 hx         1 X96       0.118200
     39 H23          3.9670    -0.9760    -0.3900 hn         1 X96       0.484467
     40 H43          3.7930    -1.0220    10.6180 hn         1 X96       0.460133
@<TRIPOS>BOND
     1     1     2 1
     2     1     4 ar
     3     1    13 ar
     4     2     3 1
     5     2     6 1
     6     4     7 ar
     7     4    23 1
     8     5    14 1
     9     5    24 1
    10     5    25 1
    11     7    10 ar
    12     7    14 1
    13     8    10 1
    14     8    15 1
    15     8    26 1
    16     9    14 2
    17    10    12 ar
    18    11    22 1
    19    11    27 1
    20    11    28 1
    21    12    13 ar
    22    12    29 1
    23    13    30 1
    24    15    16 1
    25    15    31 1
    26    15    32 1
    27    16    17 ar
    28    16    21 ar
    29    17    18 ar
    30    17    33 1
    31    18    19 ar
    32    18    34 1
    33    19    20 ar
    34    19    22 1
    35    20    21 ar
    36    20    35 1
    37    21    36 1
    38    22    37 1
    39    22    38 1
    40    39     5 1
    41    40    11 1
@<TRIPOS>SUBSTRUCTURE
     1 X96         1 TEMP              0 ****  ****    0 ROOT
