@<TRIPOS>MOLECULE
molecule
   68    72     1     0     0
SMALL
bcc


@<TRIPOS>ATOM
      1 C            0.0000     0.0000     0.0000 c          1 X97       0.689100
      2 O            1.2130     0.0000     0.0000 o          1 X97      -0.585100
      3 C1          -0.7530     0.0000     1.3060 c3         1 X97      -0.147400
      4 C2           0.2410    -0.0000     2.4680 c3         1 X97      -0.090400
      5 C3          -0.5230    -0.0010     3.7940 c3         1 X97       0.115000
      6 N4           0.4300    -0.0010     4.9070 n          1 X97      -0.487400
      7 C5           0.9170     1.1060     5.4780 c          1 X97       0.817500
      8 N6           1.7730     0.8320     6.4790 ns         1 X97      -0.590900
      9 C7           1.8560    -0.6350     6.5750 c3         1 X97       0.120000
     10 C8           0.9170    -1.1160     5.4860 c          1 X97       0.723500
     11 O9           0.6210     2.2330     5.1310 o          1 X97      -0.645500
     12 O10          0.6610    -2.2640     5.1940 o          1 X97      -0.583500
     13 C11          3.2630    -1.1060     6.3150 ca         1 X97      -0.095800
     14 C12          3.5010    -2.4290     5.9920 ca         1 X97      -0.107250
     15 C13          4.7920    -2.8610     5.7530 ca         1 X97      -0.126500
     16 C14          5.8450    -1.9690     5.8360 ca         1 X97      -0.118500
     17 C15          5.6070    -0.6450     6.1570 ca         1 X97      -0.126500
     18 C16          4.3160    -0.2130     6.3930 ca         1 X97      -0.107250
     19 C17          1.3790    -1.1060     7.9240 ca         1 X97      -0.095800
     20 C18          1.2310    -0.2020     8.9600 ca         1 X97      -0.107250
     21 C19          0.7940    -0.6340    10.1980 ca         1 X97      -0.126500
     22 C20          0.5040    -1.9710    10.4010 ca         1 X97      -0.118500
     23 C21          0.6500    -2.8740     9.3660 ca         1 X97      -0.126500
     24 C22          1.0840    -2.4420     8.1270 ca         1 X97      -0.107250
     25 N           -0.6740     0.0050    -1.1670 n          1 X97      -0.483800
     26 CA          -0.0690     0.0120    -2.5060 c3         1 X97       0.048700
     27 C4           0.7970     1.2350    -2.6720 c          1 X97       0.669100
     28 O1           0.9030     2.0300    -1.7620 o          1 X97      -0.577100
     29 CB          -1.2220     0.0440    -3.5310 c3         1 X97      -0.097400
     30 CG          -2.4030     0.6240    -2.7080 c3         1 X97      -0.095400
     31 CD          -2.1410    -0.0000    -1.3110 c3         1 X97       0.096000
     32 N1           1.4530     1.4450    -3.8300 n          1 X97      -0.500800
     33 CD1          2.3270     2.5900    -4.1250 c3         1 X97       0.096000
     34 CA1          1.4180     0.5610    -5.0090 c3         1 X97       0.096000
     35 CB1          1.7690     1.4810    -6.2050 c3         1 X97      -0.097900
     36 CG1          2.8330     2.4190    -5.5730 c3         1 X97      -0.097900
     37 H1          -1.3750    -0.8840     1.3630 hc         1 X97       0.060200
     38 H1A         -1.3750     0.8840     1.3630 hc         1 X97       0.060200
     39 H2           0.8640     0.8850     2.4110 hc         1 X97       0.074700
     40 H2A          0.8640    -0.8840     2.4100 hc         1 X97       0.074700
     41 H3          -1.1450    -0.8850     3.8510 h1         1 X97       0.068200
     42 H3A         -1.1460     0.8840     3.8520 h1         1 X97       0.068200
     43 HN6          2.2600     1.4970     7.0480 hn         1 X97       0.369500
     44 H12          2.6750    -3.1280     5.9260 ha         1 X97       0.140750
     45 H13          4.9790    -3.8970     5.5000 ha         1 X97       0.133500
     46 H14          6.8570    -2.3070     5.6500 ha         1 X97       0.131000
     47 H15          6.4330     0.0540     6.2210 ha         1 X97       0.133500
     48 H16          4.1290     0.8240     6.6440 ha         1 X97       0.140750
     49 H18          1.4580     0.8450     8.8020 ha         1 X97       0.140750
     50 H19          0.6790     0.0750    11.0090 ha         1 X97       0.133500
     51 H20          0.1630    -2.3090    11.3720 ha         1 X97       0.131000
     52 H21          0.4210    -3.9210     9.5240 ha         1 X97       0.133500
     53 H22          1.1980    -3.1510     7.3150 ha         1 X97       0.140750
     54 HA           0.5220    -0.8850    -2.6460 h1         1 X97       0.075700
     55 HB2         -0.9780     0.6970    -4.3600 hc         1 X97       0.060700
     56 HB3         -1.4530    -0.9570    -3.8760 hc         1 X97       0.060700
     57 HG2         -3.3530     0.2910    -3.1080 hc         1 X97       0.061200
     58 HG3         -2.3480     1.7050    -2.6640 hc         1 X97       0.061200
     59 HD2         -2.5970     0.6050    -0.5370 h1         1 X97       0.046700
     60 HD3         -2.5180    -1.0150    -1.2770 h1         1 X97       0.046700
     61 HD           1.7650     3.5120    -4.0380 h1         1 X97       0.050700
     62 HDA          3.1660     2.5970    -3.4400 h1         1 X97       0.050700
     63 HA1          2.1570    -0.2250    -4.9110 h1         1 X97       0.050700
     64 HAA          0.4270     0.1430    -5.1360 h1         1 X97       0.050700
     65 HB           0.9010     2.0430    -6.5270 hc         1 X97       0.054950
     66 HBA          2.1950     0.9090    -7.0200 hc         1 X97       0.054950
     67 HG           3.8090     1.9510    -5.5830 hc         1 X97       0.054950
     68 HGA          2.8520     3.3740    -6.0850 hc         1 X97       0.054950
@<TRIPOS>BOND
     1     1     2 2
     2     1     3 1
     3     3     4 1
     4     4     5 1
     5     5     6 1
     6     6     7 1
     7     6    10 1
     8     7     8 1
     9     7    11 2
    10     8     9 1
    11     9    10 1
    12     9    13 1
    13     9    19 1
    14    10    12 2
    15    13    14 ar
    16    13    18 ar
    17    14    15 ar
    18    15    16 ar
    19    16    17 ar
    20    17    18 ar
    21    19    20 ar
    22    19    24 ar
    23    20    21 ar
    24    21    22 ar
    25    22    23 ar
    26    23    24 ar
    27     3    37 1
    28     3    38 1
    29     4    39 1
    30     4    40 1
    31     5    41 1
    32     5    42 1
    33     8    43 1
    34    14    44 1
    35    15    45 1
    36    16    46 1
    37    17    47 1
    38    18    48 1
    39    20    49 1
    40    21    50 1
    41    22    51 1
    42    23    52 1
    43    24    53 1
    44    25    26 1
    45    25    31 1
    46    26    27 1
    47    26    29 1
    48    26    54 1
    49    27    28 2
    50    29    30 1
    51    29    55 1
    52    29    56 1
    53    30    31 1
    54    30    57 1
    55    30    58 1
    56    31    59 1
    57    31    60 1
    58    32    33 1
    59    32    34 1
    60    33    36 1
    61    34    35 1
    62    35    36 1
    63    33    61 1
    64    33    62 1
    65    34    63 1
    66    34    64 1
    67    35    65 1
    68    35    66 1
    69    36    67 1
    70    36    68 1
    71     1    25 1
    72    27    32 1
@<TRIPOS>SUBSTRUCTURE
     1 X97         1 TEMP              0 ****  ****    0 ROOT
