@<TRIPOS>MOLECULE
molecule
   61    65     1     0     0
SMALL
bcc


@<TRIPOS>ATOM
      1 C            0.0000     0.0000     0.0000 c          1 X98       0.693100
      2 O            1.2120     0.0000     0.0000 o          1 X98      -0.592100
      3 C1          -0.7550     0.0000     1.3040 c3         1 X98      -0.174400
      4 C2           0.2390    -0.0000     2.4670 c3         1 X98       0.107000
      5 N3          -0.4940    -0.0000     3.7360 n          1 X98      -0.330000
      6 C4          -0.8370    -1.1640     4.3290 c          1 X98       0.567200
      7 C5          -1.5750    -1.1300     5.6050 cc         1 X98       0.429900
      8 N6          -1.8900     0.0210     6.1500 nd         1 X98      -0.533100
      9 C7          -1.5500     1.1820     5.5620 ca         1 X98       0.075400
     10 C8          -1.8980     2.4020     6.1640 ca         1 X98      -0.051000
     11 C9          -1.5530     3.5790     5.5670 ca         1 X98      -0.164000
     12 C10         -0.8580     3.5870     4.3660 ca         1 X98      -0.077000
     13 C11         -0.5040     2.4030     3.7540 ca         1 X98      -0.180000
     14 C12         -0.8410     1.1900     4.3460 ca         1 X98       0.045600
     15 O13         -0.5410    -2.2280     3.8160 o          1 X98      -0.627500
     16 C14         -1.9600    -2.3940     6.2720 ca         1 X98      -0.123900
     17 C15         -2.0800    -2.4450     7.6610 ca         1 X98      -0.085000
     18 C16         -2.4400    -3.6260     8.2760 ca         1 X98      -0.142500
     19 C17         -2.6810    -4.7590     7.5190 ca         1 X98      -0.112000
     20 C18         -2.5640    -4.7150     6.1410 ca         1 X98      -0.142500
     21 C19         -2.2110    -3.5380     5.5120 ca         1 X98      -0.085000
     22 N           -0.6730     0.0050    -1.1680 n          1 X98      -0.481800
     23 CA          -0.0660     0.0120    -2.5070 c3         1 X98       0.048700
     24 C3           0.7990     1.2350    -2.6710 c          1 X98       0.671100
     25 O1           0.9040     2.0310    -1.7620 o          1 X98      -0.584100
     26 CB          -1.2190     0.0430    -3.5330 c3         1 X98      -0.096400
     27 CG          -2.4000     0.6230    -2.7110 c3         1 X98      -0.095400
     28 CD          -2.1400    -0.0000    -1.3140 c3         1 X98       0.095000
     29 N1           1.4560     1.4450    -3.8290 n          1 X98      -0.499800
     30 CD1          2.3300     2.5900    -4.1230 c3         1 X98       0.095500
     31 CA1          1.4230     0.5610    -5.0080 c3         1 X98       0.095500
     32 CB1          1.7760     1.4810    -6.2040 c3         1 X98      -0.097400
     33 CG1          2.8380     2.4200    -5.5700 c3         1 X98      -0.097400
     34 H1          -1.3770     0.8850     1.3610 hc         1 X98       0.072200
     35 H1A         -1.3780    -0.8840     1.3610 hc         1 X98       0.072200
     36 H2           0.8610    -0.8850     2.4100 h1         1 X98       0.090200
     37 H2A          0.8620     0.8840     2.4100 h1         1 X98       0.090200
     38 H8          -2.4410     2.4090     7.1010 ha         1 X98       0.152000
     39 H9          -1.8250     4.5170     6.0360 ha         1 X98       0.137000
     40 H10         -0.5920     4.5310     3.9050 ha         1 X98       0.138000
     41 H11          0.0390     2.4180     2.8160 ha         1 X98       0.151000
     42 H15         -1.8910    -1.5590     8.2550 ha         1 X98       0.151500
     43 H16         -2.5330    -3.6670     9.3550 ha         1 X98       0.131500
     44 H17         -2.9610    -5.6850     8.0070 ha         1 X98       0.128000
     45 H18         -2.7570    -5.6040     5.5530 ha         1 X98       0.131500
     46 H19         -2.1200    -3.5050     4.4330 ha         1 X98       0.151500
     47 HA           0.5250    -0.8850    -2.6460 h1         1 X98       0.078700
     48 HB2         -0.9740     0.6960    -4.3620 hc         1 X98       0.062200
     49 HB3         -1.4490    -0.9570    -3.8780 hc         1 X98       0.062200
     50 HG2         -3.3490     0.2900    -3.1110 hc         1 X98       0.061700
     51 HG3         -2.3450     1.7040    -2.6670 hc         1 X98       0.061700
     52 HD2         -2.5970     0.6060    -0.5410 h1         1 X98       0.049200
     53 HD3         -2.5170    -1.0150    -1.2800 h1         1 X98       0.049200
     54 HD           1.7690     3.5130    -4.0380 h1         1 X98       0.050950
     55 HDA          3.1690     2.5980    -3.4380 h1         1 X98       0.050950
     56 HA1          2.1610    -0.2260    -4.9090 h1         1 X98       0.050950
     57 HAA          0.4320     0.1430    -5.1360 h1         1 X98       0.050950
     58 HB           2.2040     0.9080    -7.0180 hc         1 X98       0.055450
     59 HBA          0.9090     2.0430    -6.5280 hc         1 X98       0.055450
     60 HG           2.8590     3.3740    -6.0820 hc         1 X98       0.055450
     61 HGA          3.8150     1.9510    -5.5790 hc         1 X98       0.055450
@<TRIPOS>BOND
     1     1     2 2
     2     1     3 1
     3     3     4 1
     4     4     5 1
     5     5     6 1
     6     5    14 1
     7     6     7 1
     8     6    15 2
     9     7     8 2
    10     7    16 1
    11     8     9 1
    12     9    10 ar
    13     9    14 ar
    14    10    11 ar
    15    11    12 ar
    16    12    13 ar
    17    13    14 ar
    18    16    17 ar
    19    16    21 ar
    20    17    18 ar
    21    18    19 ar
    22    19    20 ar
    23    20    21 ar
    24     3    34 1
    25     3    35 1
    26     4    36 1
    27     4    37 1
    28    10    38 1
    29    11    39 1
    30    12    40 1
    31    13    41 1
    32    17    42 1
    33    18    43 1
    34    19    44 1
    35    20    45 1
    36    21    46 1
    37    22    23 1
    38    22    28 1
    39    23    24 1
    40    23    26 1
    41    23    47 1
    42    24    25 2
    43    26    27 1
    44    26    48 1
    45    26    49 1
    46    27    28 1
    47    27    50 1
    48    27    51 1
    49    28    52 1
    50    28    53 1
    51    29    30 1
    52    29    31 1
    53    30    33 1
    54    31    32 1
    55    32    33 1
    56    30    54 1
    57    30    55 1
    58    31    56 1
    59    31    57 1
    60    32    58 1
    61    32    59 1
    62    33    60 1
    63    33    61 1
    64     1    22 1
    65    24    29 1
@<TRIPOS>SUBSTRUCTURE
     1 X98         1 TEMP              0 ****  ****    0 ROOT
