@<TRIPOS>MOLECULE
X99
   50    53     1     0     0
SMALL
bcc


@<TRIPOS>ATOM
      1 C            0.0000     0.0000     0.0000 c          1 X99       0.627100
      2 O            1.2130     0.0000     0.0000 o          1 X99      -0.619100
      3 C1          -0.7530     0.0000     1.3050 c3         1 X99      -0.120400
      4 C2           0.2410    -0.0090     2.4680 c3         1 X99       0.067000
      5 N3          -0.4920    -0.0090     3.7360 n          1 X99      -0.138400
      6 C4          -0.8770    -1.1180     4.3920 c          1 X99       0.654600
      7 C5          -0.8630     1.1000     4.4020 c          1 X99       0.654600
      8 O6          -0.6760    -2.2610     4.0320 o          1 X99      -0.612000
      9 O7          -0.6470     2.2420     4.0510 o          1 X99      -0.612000
     10 C8          -1.5860    -0.7150     5.6250 ca         1 X99      -0.170100
     11 C9          -2.1900    -1.4050     6.6640 ca         1 X99      -0.020000
     12 C10         -2.7840    -0.7020     7.7020 ca         1 X99      -0.089000
     13 C11         -2.7770     0.6800     7.7050 ca         1 X99      -0.089000
     14 C12         -2.1770     1.3830     6.6730 ca         1 X99      -0.020000
     15 C13         -1.5760     0.6950     5.6320 ca         1 X99      -0.170100
     16 N           -0.6740     0.0070    -1.1670 n          1 X99      -0.138800
     17 CD          -2.1410     0.0140    -1.3130 c3         1 X99       0.004000
     18 CA          -0.0670     0.0140    -2.5070 c3         1 X99      -0.031300
     19 CB          -1.2210    -0.0060    -3.5320 c3         1 X99      -0.080400
     20 CG          -2.4030    -0.5910    -2.7140 c3         1 X99       0.362600
     21 C3           0.7580     1.2620    -2.6880 c          1 X99       0.592100
     22 O1           0.8380     2.0720    -1.7910 o          1 X99      -0.617100
     23 F1          -2.3440    -1.9880    -2.6750 f          1 X99      -0.205800
     24 F2          -3.6310    -0.1580    -3.2260 f          1 X99      -0.205800
     25 N1           1.4080     1.4770    -3.8500 n          1 X99      -0.161800
     26 CD1          2.2440     2.6450    -4.1610 c3         1 X99       0.045000
     27 CA1          1.4020     0.5750    -5.0170 c3         1 X99       0.045000
     28 CB1          1.7240     1.4890    -6.2250 c3         1 X99      -0.032900
     29 CG1          2.7570     2.4710    -5.6060 c3         1 X99      -0.032900
     30 H1          -1.3800    -0.8810     1.3600 hc         1 X99       0.039700
     31 H1A         -1.3710     0.8870     1.3650 hc         1 X99       0.039700
     32 H2           0.8590    -0.8960     2.4070 h1         1 X99       0.058200
     33 H2A          0.8680     0.8730     2.4130 h1         1 X99       0.058200
     34 H9          -2.1980    -2.4880     6.6660 ha         1 X99       0.117000
     35 H10         -3.2560    -1.2410     8.5140 ha         1 X99       0.109000
     36 H11         -3.2450     1.2180     8.5220 ha         1 X99       0.109000
     37 H12         -2.1750     2.4660     6.6820 ha         1 X99       0.117000
     38 HD          -2.5970    -0.6000    -0.5460 h1         1 X99       0.047200
     39 HDA         -2.5180     1.0290    -1.2660 h1         1 X99       0.047200
     40 HA           0.5520    -0.8650    -2.6340 h1         1 X99       0.057700
     41 HB          -0.9780    -0.6530    -4.3670 hc         1 X99       0.057700
     42 HBA         -1.4500     0.9970    -3.8680 hc         1 X99       0.057700
     43 HD1          1.6520     3.5500    -4.0880 h1         1 X99       0.023950
     44 HDA1         3.0820     2.6900    -3.4760 h1         1 X99       0.023950
     45 HA1          0.4250     0.1240    -5.1370 h1         1 X99       0.023950
     46 HAA          2.1660    -0.1850    -4.9070 h1         1 X99       0.023950
     47 HB1          0.8390     2.0190    -6.5550 hc         1 X99       0.025450
     48 HBA1         2.1700     0.9200    -7.0320 hc         1 X99       0.025450
     49 HG           3.7480     2.0350    -5.6080 hc         1 X99       0.025450
     50 HGA          2.7460     3.4180    -6.1310 hc         1 X99       0.025450
@<TRIPOS>BOND
     1     1     2 2   
     2     1     3 1   
     3     1    16 1   
     4     3     4 1   
     5     3    30 1   
     6     3    31 1   
     7     4     5 1   
     8     4    32 1   
     9     4    33 1   
    10     5     6 1   
    11     5     7 1   
    12     6     8 2   
    13     6    10 1   
    14     7     9 2   
    15     7    15 1   
    16    10    11 ar  
    17    10    15 ar  
    18    11    12 ar  
    19    11    34 1   
    20    12    13 ar  
    21    12    35 1   
    22    13    14 ar  
    23    13    36 1   
    24    14    15 ar  
    25    14    37 1   
    26    16    17 1   
    27    16    18 1   
    28    17    20 1   
    29    17    38 1   
    30    17    39 1   
    31    18    19 1   
    32    18    21 1   
    33    18    40 1   
    34    19    20 1   
    35    19    41 1   
    36    19    42 1   
    37    20    23 1   
    38    20    24 1   
    39    21    22 2   
    40    21    25 1   
    41    25    26 1   
    42    25    27 1   
    43    26    29 1   
    44    26    43 1   
    45    26    44 1   
    46    27    28 1   
    47    27    45 1   
    48    27    46 1   
    49    28    29 1   
    50    28    47 1   
    51    28    48 1   
    52    29    49 1   
    53    29    50 1   
@<TRIPOS>SUBSTRUCTURE
     1 X99         1 TEMP              0 ****  ****    0 ROOT
