@<TRIPOS>MOLECULE
X9F
   43    46     1     0     0
SMALL
bcc


@<TRIPOS>ATOM
      1 C7           0.0000     0.0000     0.0000 ca         1 X9F       0.737900
      2 N2           1.3250     0.0000     0.0000 nb         1 X9F      -0.733000
      3 C8           2.0060     0.0000     1.1370 ca         1 X9F       0.529200
      4 C9           1.3190     0.0010     2.3350 ca         1 X9F      -0.476600
      5 C10         -0.0770     0.0020     2.3040 ca         1 X9F       0.561200
      6 N3          -0.8070     0.0030     3.4820 nu         1 X9F      -0.276300
      7 C11         -2.1980    -0.0930     3.4410 ca         1 X9F       0.075600
      8 C12         -2.8250    -0.6330     2.3330 ca         1 X9F      -0.193000
      9 C13         -4.2090    -0.7310     2.2870 ca         1 X9F      -0.028000
     10 C14         -4.9800    -0.2930     3.3400 ca         1 X9F      -0.151000
     11 C15         -4.3730     0.2550     4.4680 ca         1 X9F      -0.161200
     12 N4          -4.8520     0.7650     5.6470 na         1 X9F       0.420900
     13 N5          -3.7580     1.1770     6.4180 nc         1 X9F      -0.641100
     14 C16         -2.6520     0.9450     5.7730 cd         1 X9F       0.433800
     15 C17         -2.9710     0.3540     4.5280 ca         1 X9F      -0.298900
     16 N6          -0.6950     0.0010     1.1270 nb         1 X9F      -0.740000
     17 C1          -1.3430     0.2980    -6.9800 c3         1 X9F       0.027700
     18 O1           0.9830     1.6020    -6.8910 o          1 X9F      -0.587800
     19 O2          -0.9050     2.5360    -5.5940 o          1 X9F      -0.587800
     20 C2           0.3270     0.5200    -4.7100 ca         1 X9F      -0.140500
     21 C3           1.4480    -0.2850    -4.7810 ca         1 X9F      -0.015000
     22 C4           1.8660    -0.9940    -3.6700 ca         1 X9F      -0.115000
     23 C5           1.1650    -0.9000    -2.4850 ca         1 X9F      -0.051000
     24 C6           0.0380    -0.0910    -2.4090 ca         1 X9F      -0.028400
     25 N1          -0.6750     0.0070    -1.2100 nu         1 X9F      -0.288300
     26 C18         -0.3760     0.6240    -3.5250 ca         1 X9F      -0.030000
     27 H1          -1.6750     0.0590    -1.2260 hn         1 X9F       0.293800
     28 H8           3.0890    -0.0000     1.1260 h4         1 X9F      -0.018900
     29 H9           1.8520     0.0010     3.2780 ha         1 X9F       0.129000
     30 H3          -0.3360     0.0720     4.3620 hn         1 X9F       0.289800
     31 H12         -2.2330    -0.9820     1.4960 ha         1 X9F       0.162000
     32 H13         -4.6870    -1.1560     1.4130 ha         1 X9F       0.099000
     33 H14         -6.0590    -0.3750     3.2920 ha         1 X9F       0.105000
     34 H4          -5.8150     0.8320     5.9110 hn         1 X9F       0.154700
     35 H16         -1.6540     1.1630     6.1310 h4         1 X9F       0.005800
     36 H11C        -2.2470     0.1870    -6.3930 h1         1 X9F       0.058367
     37 H12C        -0.8720    -0.6700    -7.1020 h1         1 X9F       0.058367
     38 H13C        -1.5910     0.7040    -7.9530 h1         1 X9F       0.058367
     39 HA           2.0000    -0.3610    -5.7100 ha         1 X9F       0.122000
     40 H18         -1.2540     1.2560    -3.4690 ha         1 X9F       0.126000
     41 HB           2.7450    -1.6240    -3.7300 ha         1 X9F       0.108000
     42 H5           1.4930    -1.4560    -1.6150 ha         1 X9F       0.131000
     43 S1          -0.2020     1.4230    -6.1270 sy         1 X9F       0.874300
@<TRIPOS>BOND
     1     1     2 ar  
     2     1    16 ar  
     3     1    25 1   
     4     2     3 ar  
     5     3     4 ar  
     6     3    28 1   
     7     4     5 ar  
     8     4    29 1   
     9     5     6 1   
    10     5    16 ar  
    11     6     7 1   
    12     6    30 1   
    13     7     8 ar  
    14     7    15 ar  
    15     8     9 ar  
    16     8    31 1   
    17     9    10 ar  
    18     9    32 1   
    19    10    11 ar  
    20    10    33 1   
    21    11    12 1   
    22    11    15 ar  
    23    12    13 1   
    24    12    34 1   
    25    13    14 2   
    26    14    15 1   
    27    14    35 1   
    28    17    36 1   
    29    17    37 1   
    30    17    38 1   
    31    17    43 1   
    32    18    43 2   
    33    19    43 2   
    34    20    21 ar  
    35    20    26 ar  
    36    20    43 1   
    37    21    22 ar  
    38    21    39 1   
    39    22    23 ar  
    40    22    41 1   
    41    23    24 ar  
    42    23    42 1   
    43    24    25 1   
    44    24    26 ar  
    45    25    27 1   
    46    26    40 1   
@<TRIPOS>SUBSTRUCTURE
     1 X9F         1 TEMP              0 ****  ****    0 ROOT
