@<TRIPOS>MOLECULE
molecule
   43    46     1     0     0
SMALL
bcc


@<TRIPOS>ATOM
      1 C7           0.0000     0.0000     0.0000 ca         1 X9F       0.967900
      2 N2           1.3250     0.0000     0.0000 nb         1 X9F      -0.823000
      3 C8           2.0060     0.0000     1.1370 ca         1 X9F       0.526200
      4 C9           1.3190     0.0010     2.3350 ca         1 X9F      -0.487600
      5 C10         -0.0770     0.0020     2.3040 ca         1 X9F       0.758200
      6 N3          -0.8070     0.0030     3.4820 nu         1 X9F      -0.752300
      7 C11         -2.1980    -0.0930     3.4410 ca         1 X9F       0.221600
      8 C12         -2.8250    -0.6330     2.3330 ca         1 X9F      -0.194000
      9 C13         -4.2090    -0.7310     2.2870 ca         1 X9F      -0.062000
     10 C14         -4.9800    -0.2930     3.3400 ca         1 X9F      -0.189000
     11 C15         -4.3730     0.2550     4.4680 ca         1 X9F       0.002800
     12 N4          -4.8520     0.7650     5.6470 na         1 X9F      -0.050100
     13 N5          -3.7580     1.1770     6.4180 nc         1 X9F      -0.503100
     14 C16         -2.6520     0.9450     5.7730 cd         1 X9F       0.376800
     15 C17         -2.9710     0.3540     4.5280 ca         1 X9F      -0.290900
     16 N6          -0.6950     0.0010     1.1270 nb         1 X9F      -0.846000
     17 C1          -1.3430     0.2980    -6.9800 c3         1 X9F      -0.227300
     18 O1           0.9830     1.6020    -6.8910 o          1 X9F      -0.617300
     19 O2          -0.9050     2.5360    -5.5940 o          1 X9F      -0.617300
     20 C2           0.3270     0.5200    -4.7100 ca         1 X9F      -0.281500
     21 C3           1.4480    -0.2850    -4.7810 ca         1 X9F      -0.048000
     22 C4           1.8660    -0.9940    -3.6700 ca         1 X9F      -0.136000
     23 C5           1.1650    -0.9000    -2.4850 ca         1 X9F      -0.069000
     24 C6           0.0380    -0.0910    -2.4090 ca         1 X9F       0.142600
     25 N1          -0.6750     0.0070    -1.2100 nu         1 X9F      -0.756300
     26 C18         -0.3760     0.6240    -3.5250 ca         1 X9F      -0.066000
     27 H1          -1.6750     0.0590    -1.2260 hn         1 X9F       0.468800
     28 H8           3.0890    -0.0000     1.1260 h4         1 X9F       0.032100
     29 H9           1.8520     0.0010     3.2780 ha         1 X9F       0.144000
     30 H3          -0.3360     0.0720     4.3620 hn         1 X9F       0.461800
     31 H12         -2.2330    -0.9820     1.4960 ha         1 X9F       0.179000
     32 H13         -4.6870    -1.1560     1.4130 ha         1 X9F       0.133000
     33 H14         -6.0590    -0.3750     3.2920 ha         1 X9F       0.130000
     34 H4          -5.8150     0.8320     5.9110 hn         1 X9F       0.335700
     35 H16         -1.6540     1.1630     6.1310 h4         1 X9F       0.051800
     36 H11C        -2.2470     0.1870    -6.3930 h1         1 X9F       0.097367
     37 H12C        -0.8720    -0.6700    -7.1020 h1         1 X9F       0.097367
     38 H13C        -1.5910     0.7040    -7.9530 h1         1 X9F       0.097367
     39 HA           2.0000    -0.3610    -5.7100 ha         1 X9F       0.150000
     40 H18         -1.2540     1.2560    -3.4690 ha         1 X9F       0.152000
     41 HB           2.7450    -1.6240    -3.7300 ha         1 X9F       0.139000
     42 H5           1.4930    -1.4560    -1.6150 ha         1 X9F       0.159000
     43 S1          -0.2020     1.4230    -6.1270 sy         1 X9F       1.193300
@<TRIPOS>BOND
     1     1     2 ar
     2     1    16 ar
     3     1    25 1
     4     2     3 ar
     5     3     4 ar
     6     4     5 ar
     7     5     6 1
     8     5    16 ar
     9     6     7 1
    10     7     8 ar
    11     7    15 ar
    12     8     9 ar
    13     9    10 ar
    14    10    11 ar
    15    11    12 1
    16    11    15 ar
    17    12    13 1
    18    13    14 2
    19    14    15 1
    20    17    43 1
    21    43    18 2
    22    43    19 2
    23    43    20 1
    24    20    21 ar
    25    20    26 ar
    26    21    22 ar
    27    22    23 ar
    28    23    24 ar
    29    24    25 1
    30    24    26 ar
    31    25    27 1
    32     3    28 1
    33     4    29 1
    34     6    30 1
    35     8    31 1
    36     9    32 1
    37    10    33 1
    38    12    34 1
    39    14    35 1
    40    17    36 1
    41    17    37 1
    42    17    38 1
    43    21    39 1
    44    26    40 1
    45    22    41 1
    46    23    42 1
@<TRIPOS>SUBSTRUCTURE
     1 X9F         1 TEMP              0 ****  ****    0 ROOT
