@<TRIPOS>MOLECULE
X9G
   55    59     1     0     0
SMALL
bcc


@<TRIPOS>ATOM
      1 C4           0.0000     0.0000     0.0000 ca         1 X9G       0.420800
      2 C5           1.3950     0.0000     0.0000 ca         1 X9G      -0.410600
      3 C6           2.0550     0.0000     1.2150 ca         1 X9G       0.502200
      4 N1           1.3490    -0.0010     2.3350 nb         1 X9G      -0.697000
      5 N3          -0.6440     0.0050     1.1610 nb         1 X9G      -0.715000
      6 CAM         -3.6510    -1.6220    -5.0850 cy         1 X9G       0.101300
      7 CBB         -5.0110    -2.3230    -5.2540 cy         1 X9G       0.158100
      8 OAD         -4.9760    -3.7240    -4.9690 oh         1 X9G      -0.545800
      9 CAN         -5.4920    -1.4610    -4.0730 cy         1 X9G       0.101300
     10 NBC         -4.0640    -1.3690    -3.6860 nq         1 X9G      -0.516600
     11 CAV         -2.3410     0.0020    -2.6590 cc         1 X9G      -0.306600
     12 CAK         -2.0600     0.0010    -1.3360 cd         1 X9G      -0.206300
     13 CAS         -1.1280     0.0030    -3.3580 cc         1 X9G       0.389600
     14 CAA         -0.9750    -0.0010    -4.8570 c3         1 X9G      -0.017400
     15 NAQ         -0.1510     0.0080    -2.4890 nd         1 X9G      -0.655800
     16 NBE         -0.7080     0.0010    -1.2030 na         1 X9G       0.495600
     17 C2           0.0250    -0.0000     2.3040 ca         1 X9G       0.723900
     18 NAR         -0.6790    -0.0010     3.4970 nu         1 X9G      -0.277300
     19 CAT          0.0060    -0.1190     4.7140 ca         1 X9G      -0.028400
     20 CAJ         -0.4680     0.5330     5.8360 ca         1 X9G      -0.076000
     21 CAZ          0.2190     0.4110     7.0460 ca         1 X9G      -0.071800
     22 CAW          0.0080     0.9480     8.3940 cc         1 X9G      -0.105800
     23 Cl1         -1.2880     1.9850     8.8990 cl         1 X9G      -0.005400
     24 CAU          1.0070     0.4840     9.1630 cd         1 X9G      -0.224300
     25 CAB          1.1830     0.7870    10.6280 c3         1 X9G       0.088100
     26 NBD          1.8410    -0.3070     8.4170 na         1 X9G       0.403600
     27 CAC          3.0370    -0.9820     8.9250 c3         1 X9G      -0.011400
     28 CBA          1.3860    -0.3700     7.1170 ca         1 X9G      -0.214200
     29 CAI          1.8470    -1.0190     5.9760 ca         1 X9G      -0.088000
     30 CAH          1.1600    -0.8970     4.7890 ca         1 X9G      -0.082000
     31 H1           1.9480    -0.0020    -0.9310 ha         1 X9G       0.152000
     32 H2           3.1380    -0.0000     1.2500 h4         1 X9G      -0.015900
     33 H3          -2.8100    -2.3010    -5.1650 h1         1 X9G       0.035200
     34 H4          -3.5630    -0.7170    -5.6740 h1         1 X9G       0.035200
     35 H5          -5.5010    -2.0690    -6.1860 h1         1 X9G       0.004700
     36 H6          -5.4100    -4.1960    -5.6600 ho         1 X9G       0.384000
     37 H7          -5.9110    -0.5110    -4.3830 h1         1 X9G       0.035200
     38 H8          -6.0910    -2.0130    -3.3600 h1         1 X9G       0.035200
     39 H10         -4.4390     0.3470    -2.5440 h1         1 X9G       0.011700
     40 H11         -3.7310     0.6510    -4.1360 h1         1 X9G       0.011700
     41 H12         -2.7790     0.1020    -0.5320 h4         1 X9G       0.161000
     42 H13         -0.0170     0.4300    -5.1230 hc         1 X9G       0.014700
     43 H14         -1.0270    -1.0190    -5.2230 hc         1 X9G       0.014700
     44 H15         -1.7700     0.5840    -5.3030 hc         1 X9G       0.014700
     45 H16         -1.6760     0.0820     3.4900 hn         1 X9G       0.291800
     46 H17         -1.4250     1.0390     5.8050 ha         1 X9G       0.110000
     47 H18          2.0850     1.3690    10.7700 hc         1 X9G       0.012700
     48 H19          1.2600    -0.1410    11.1810 hc         1 X9G       0.012700
     49 H20          0.3290     1.3510    10.9850 hc         1 X9G       0.012700
     50 H21          3.6550    -1.2960     8.0930 h1         1 X9G       0.019367
     51 H22          2.7430    -1.8490     9.5040 h1         1 X9G       0.019367
     52 H23          3.5970    -0.3000     9.5530 h1         1 X9G       0.019367
     53 H24          2.7430    -1.6270     6.0230 ha         1 X9G       0.102000
     54 H25          1.5150    -1.4170     3.9080 ha         1 X9G       0.132000
     55 CAL         -3.7180    -0.0030    -3.2720 c3         1 X9G       0.242100
@<TRIPOS>BOND
     1     1     2 ar  
     2     1     5 ar  
     3     1    16 1   
     4     2     3 ar  
     5     2    31 1   
     6     3     4 ar  
     7     3    32 1   
     8     4    17 ar  
     9     5    17 ar  
    10     6     7 1   
    11     6    10 1   
    12     6    33 1   
    13     6    34 1   
    14     7     8 1   
    15     7     9 1   
    16     7    35 1   
    17     8    36 1   
    18     9    10 1   
    19     9    37 1   
    20     9    38 1   
    21    10    55 1   
    22    11    12 2   
    23    11    13 1   
    24    11    55 1   
    25    12    16 1   
    26    12    41 1   
    27    13    14 1   
    28    13    15 2   
    29    14    42 1   
    30    14    43 1   
    31    14    44 1   
    32    15    16 1   
    33    17    18 1   
    34    18    19 1   
    35    18    45 1   
    36    19    20 ar  
    37    19    30 ar  
    38    20    21 ar  
    39    20    46 1   
    40    21    22 1   
    41    21    28 ar  
    42    22    23 1   
    43    22    24 2   
    44    24    25 1   
    45    24    26 1   
    46    25    47 1   
    47    25    48 1   
    48    25    49 1   
    49    26    27 1   
    50    26    28 1   
    51    27    50 1   
    52    27    51 1   
    53    27    52 1   
    54    28    29 ar  
    55    29    30 ar  
    56    29    53 1   
    57    30    54 1   
    58    39    55 1   
    59    40    55 1   
@<TRIPOS>SUBSTRUCTURE
     1 X9G         1 TEMP              0 ****  ****    0 ROOT
