@<TRIPOS>MOLECULE
molecule
   55    59     1     0     0
SMALL
bcc


@<TRIPOS>ATOM
      1 C4           0.0000     0.0000     0.0000 ca         1 X9G       0.636800
      2 C5           1.3950     0.0000     0.0000 ca         1 X9G      -0.433600
      3 C6           2.0550     0.0000     1.2150 ca         1 X9G       0.506200
      4 N1           1.3490    -0.0010     2.3350 nb         1 X9G      -0.801000
      5 N3          -0.6440     0.0050     1.1610 nb         1 X9G      -0.838000
      6 CAM         -3.6510    -1.6220    -5.0850 cy         1 X9G       0.094800
      7 CBB         -5.0110    -2.3230    -5.2540 cy         1 X9G       0.113100
      8 OAD         -4.9760    -3.7240    -4.9690 oh         1 X9G      -0.567800
      9 CAN         -5.4920    -1.4610    -4.0730 cy         1 X9G       0.094800
     10 NBC         -4.0640    -1.3690    -3.6860 nq         1 X9G      -0.637600
     11 CAV         -2.3410     0.0020    -2.6590 cc         1 X9G      -0.290600
     12 CAK         -2.0600     0.0010    -1.3360 cd         1 X9G      -0.054300
     13 CAS         -1.1280     0.0030    -3.3580 cc         1 X9G       0.366600
     14 CAA         -0.9750    -0.0010    -4.8570 c3         1 X9G      -0.113400
     15 NAQ         -0.1510     0.0080    -2.4890 nd         1 X9G      -0.504800
     16 NBE         -0.7080     0.0010    -1.2030 na         1 X9G       0.031600
     17 C2           0.0250    -0.0000     2.3040 ca         1 X9G       0.966900
     18 NAR         -0.6790    -0.0010     3.4970 nu         1 X9G      -0.750300
     19 CAT          0.0060    -0.1190     4.7140 ca         1 X9G       0.135600
     20 CAJ         -0.4680     0.5330     5.8360 ca         1 X9G      -0.113000
     21 CAZ          0.2190     0.4110     7.0460 ca         1 X9G      -0.074800
     22 CAW          0.0080     0.9480     8.3940 cd         1 X9G      -0.045800
     23 Cl1         -1.2880     1.9850     8.8990 cl         1 X9G      -0.095400
     24 CAU          1.0070     0.4840     9.1630 cc         1 X9G      -0.034300
     25 CAB          1.1830     0.7870    10.6280 c3         1 X9G      -0.034900
     26 NBD          1.8410    -0.3070     8.4170 na         1 X9G      -0.069400
     27 CAC          3.0370    -0.9820     8.9250 c3         1 X9G       0.042600
     28 CBA          1.3860    -0.3700     7.1170 ca         1 X9G      -0.042200
     29 CAI          1.8470    -1.0190     5.9760 ca         1 X9G      -0.131000
     30 CAH          1.1600    -0.8970     4.7890 ca         1 X9G      -0.096000
     31 H1           1.9480    -0.0020    -0.9310 ha         1 X9G       0.170000
     32 H2           3.1380    -0.0000     1.2500 h4         1 X9G       0.034100
     33 H3          -2.8100    -2.3010    -5.1650 h1         1 X9G       0.064450
     34 H4          -3.5630    -0.7170    -5.6740 h1         1 X9G       0.064450
     35 H5          -5.5010    -2.0690    -6.1860 h1         1 X9G       0.036700
     36 H6          -5.4100    -4.1960    -5.6600 ho         1 X9G       0.399000
     37 H7          -5.9110    -0.5110    -4.3830 h1         1 X9G       0.064450
     38 H8          -6.0910    -2.0130    -3.3600 h1         1 X9G       0.064450
     39 H10         -4.4390     0.3470    -2.5440 h1         1 X9G       0.040700
     40 H11         -3.7310     0.6510    -4.1360 h1         1 X9G       0.040700
     41 H12         -2.7790     0.1020    -0.5320 h4         1 X9G       0.190000
     42 H13         -0.0170     0.4300    -5.1230 hc         1 X9G       0.052367
     43 H14         -1.0270    -1.0190    -5.2230 hc         1 X9G       0.052367
     44 H15         -1.7700     0.5840    -5.3030 hc         1 X9G       0.052367
     45 H16         -1.6760     0.0820     3.4900 hn         1 X9G       0.466800
     46 H17         -1.4250     1.0390     5.8050 ha         1 X9G       0.139000
     47 H18          2.0850     1.3690    10.7700 hc         1 X9G       0.054033
     48 H19          1.2600    -0.1410    11.1810 hc         1 X9G       0.054033
     49 H20          0.3290     1.3510    10.9850 hc         1 X9G       0.054033
     50 H21          3.6550    -1.2960     8.0930 h1         1 X9G       0.049700
     51 H22          2.7430    -1.8490     9.5040 h1         1 X9G       0.049700
     52 H23          3.5970    -0.3000     9.5530 h1         1 X9G       0.049700
     53 H24          2.7430    -1.6270     6.0230 ha         1 X9G       0.129000
     54 H25          1.5150    -1.4170     3.9080 ha         1 X9G       0.159000
     55 CAL         -3.7180    -0.0030    -3.2720 c3         1 X9G       0.207100
@<TRIPOS>BOND
     1    30    29 ar
     2    30    19 ar
     3    29    28 ar
     4    18    19 1
     5    18    17 1
     6    19    20 ar
     7    27    26 1
     8     4    17 ar
     9     4     3 ar
    10    28    26 1
    11    28    21 ar
    12    17     5 ar
    13    26    24 1
    14     3     2 ar
    15    20    21 ar
    16    21    22 1
    17     5     1 ar
    18    24    22 2
    19    24    25 1
    20     2     1 ar
    21    22    23 1
    22     1    16 1
    23    16    12 1
    24    16    15 1
    25    12    11 2
    26    15    13 2
    27    11    13 1
    28    11    55 1
    29    13    14 1
    30    55    10 1
    31     9    10 1
    32     9     7 1
    33    10     6 1
    34     8     7 1
    35     7     6 1
    36     2    31 1
    37     3    32 1
    38     6    33 1
    39     6    34 1
    40     7    35 1
    41     8    36 1
    42     9    37 1
    43     9    38 1
    44    55    39 1
    45    55    40 1
    46    12    41 1
    47    14    42 1
    48    14    43 1
    49    14    44 1
    50    18    45 1
    51    20    46 1
    52    25    47 1
    53    25    48 1
    54    25    49 1
    55    27    50 1
    56    27    51 1
    57    27    52 1
    58    29    53 1
    59    30    54 1
@<TRIPOS>SUBSTRUCTURE
     1 X9G         1 TEMP              0 ****  ****    0 ROOT
