@<TRIPOS>MOLECULE
molecule
   36    37     1     0     0
SMALL
bcc


@<TRIPOS>ATOM
      1 C1           0.0000     0.0000     0.0000 ca         1 X9I      -0.205200
      2 N1          -0.7360     0.0010    -1.2840 no         1 X9I       0.299200
      3 O1          -1.9540     0.0060    -1.2870 o          1 X9I      -0.196000
      4 C2           1.3790     0.0000     0.0000 ca         1 X9I      -0.012000
      5 N2           4.2290    -0.1200     0.0590 nz         1 X9I      -0.673400
      6 O2          -0.1250    -0.0040    -2.3370 o          1 X9I      -0.196000
      7 C3           2.0760     0.0000     1.2100 ca         1 X9I      -0.322600
      8 N3           2.0440     0.0000     3.6300 nu         1 X9I      -0.713600
      9 O3           4.1530     0.1070     2.2680 o          1 X9I      -0.455100
     10 C4           1.3640    -0.0000     2.4200 ca         1 X9I       0.294600
     11 C5          -0.0250    -0.0000     2.4000 ca         1 X9I      -0.197000
     12 C6          -0.6990     0.0050     1.1950 ca         1 X9I       0.010000
     13 C7           3.5500    -0.0000     1.2170 c          1 X9I       0.511700
     14 C8           1.3030    -0.1230     4.8880 c3         1 X9I       0.262100
     15 C9           2.2680    -0.0950     6.0450 ca         1 X9I      -0.188300
     16 C10          2.6070     1.1120     6.6310 ca         1 X9I      -0.135500
     17 C11          3.4910     1.1430     7.6900 ca         1 X9I      -0.101500
     18 C12          4.0420    -0.0450     8.1710 ca         1 X9I      -0.062600
     19 C13          3.6960    -1.2590     7.5760 ca         1 X9I      -0.101500
     20 C14          2.8060    -1.2780     6.5200 ca         1 X9I      -0.135500
     21 C15          4.9880    -0.0180     9.3050 c          1 X9I       0.871200
     22 O16          5.5180    -1.1680     9.7670 o          1 X9I      -0.814800
     23 O17          5.2880     1.0390     9.8210 o          1 X9I      -0.814800
     24 H2           1.9210     0.0000    -0.9380 ha         1 X9I       0.133000
     25 H1N2         3.9420    -0.9550    -0.4110 hn         1 X9I       0.475467
     26 H2N2         5.2100    -0.1670     0.2520 hn         1 X9I       0.475467
     27 HN3          3.0450     0.0380     3.6410 hn         1 X9I       0.486800
     28 H5          -0.5800     0.0020     3.3300 ha         1 X9I       0.182000
     29 H6          -1.7830     0.0060     1.1850 ha         1 X9I       0.186000
     30 H18          0.6070     0.7020     4.9790 h1         1 X9I       0.057700
     31 H28          0.7580    -1.0590     4.8960 h1         1 X9I       0.057700
     32 H10          2.1780     2.0340     6.2570 ha         1 X9I       0.108000
     33 H11          3.7560     2.0890     8.1480 ha         1 X9I       0.165000
     34 H13          4.1180    -2.1860     7.9460 ha         1 X9I       0.165000
     35 H14          2.5360    -2.2190     6.0570 ha         1 X9I       0.108000
     36 H23          4.0700     0.6900    -0.5060 hn         1 X9I       0.475467
@<TRIPOS>BOND
     1     1     2 1
     2     1    12 ar
     3     2     3 1
     4     4     1 ar
     5     4    24 1
     6     5    13 1
     7     5    25 1
     8     5    26 1
     9     6     2 1
    10     7     4 ar
    11     7    10 ar
    12     8    10 1
    13     8    14 1
    14     8    27 1
    15     9    13 2
    16    10    11 ar
    17    11    12 ar
    18    11    28 1
    19    12    29 1
    20    13     7 1
    21    14    15 1
    22    14    30 1
    23    14    31 1
    24    15    16 ar
    25    16    17 ar
    26    16    32 1
    27    17    33 1
    28    18    17 ar
    29    18    21 1
    30    19    18 ar
    31    19    34 1
    32    20    15 ar
    33    20    19 ar
    34    20    35 1
    35    21    22 1
    36    23    21 1
    37    36     5 1
@<TRIPOS>SUBSTRUCTURE
     1 X9I         1 TEMP              0 ****  ****    0 ROOT
