@<TRIPOS>MOLECULE
X9I
   36    37     1     0     0
SMALL
bcc


@<TRIPOS>ATOM
      1 C1           0.0000     0.0000     0.0000 ca         1 X9I      -0.495200
      2 N1          -0.7360     0.0010    -1.2840 no         1 X9I       1.053200
      3 O1          -1.9540     0.0060    -1.2870 o          1 X9I      -0.442500
      4 C2           1.3790     0.0000     0.0000 ca         1 X9I       0.057000
      5 N2           4.2290    -0.1200     0.0590 nz         1 X9I       0.209600
      6 O2          -0.1250    -0.0040    -2.3370 o          1 X9I      -0.442500
      7 C3           2.0760     0.0000     1.2100 ca         1 X9I      -0.350600
      8 N3           2.0440     0.0000     3.6300 nu         1 X9I      -0.272600
      9 O3           4.1530     0.1070     2.2680 o          1 X9I      -0.486100
     10 C4           1.3640    -0.0000     2.4200 ca         1 X9I       0.151600
     11 C5          -0.0250    -0.0000     2.4000 ca         1 X9I      -0.187000
     12 C6          -0.6990     0.0050     1.1950 ca         1 X9I       0.071000
     13 C7           3.5500    -0.0000     1.2170 c          1 X9I       0.352700
     14 C8           1.3030    -0.1230     4.8880 c3         1 X9I       0.203100
     15 C9           2.2680    -0.0950     6.0450 ca         1 X9I      -0.210300
     16 C10          2.6070     1.1120     6.6310 ca         1 X9I      -0.113500
     17 C11          3.4910     1.1430     7.6900 ca         1 X9I      -0.070500
     18 C12          4.0420    -0.0450     8.1710 ca         1 X9I      -0.059600
     19 C13          3.6960    -1.2590     7.5760 ca         1 X9I      -0.070500
     20 C14          2.8060    -1.2780     6.5200 ca         1 X9I      -0.113500
     21 C15          4.9880    -0.0180     9.3050 c          1 X9I       0.958200
     22 O16          5.5180    -1.1680     9.7670 o          1 X9I      -0.861800
     23 O17          5.2880     1.0390     9.8210 o          1 X9I      -0.861800
     24 H2           1.9210     0.0000    -0.9380 ha         1 X9I       0.099000
     25 H1N2         3.9420    -0.9550    -0.4110 hn         1 X9I       0.242467
     26 H2N2         5.2100    -0.1670     0.2520 hn         1 X9I       0.242467
     27 HN3          3.0450     0.0380     3.6410 hn         1 X9I       0.349800
     28 H5          -0.5800     0.0020     3.3300 ha         1 X9I       0.151000
     29 H6          -1.7830     0.0060     1.1850 ha         1 X9I       0.143000
     30 H18          0.6070     0.7020     4.9790 h1         1 X9I       0.032200
     31 H28          0.7580    -1.0590     4.8960 h1         1 X9I       0.032200
     32 H10          2.1780     2.0340     6.2570 ha         1 X9I       0.086500
     33 H11          3.7560     2.0890     8.1480 ha         1 X9I       0.137000
     34 H13          4.1180    -2.1860     7.9460 ha         1 X9I       0.137000
     35 H14          2.5360    -2.2190     6.0570 ha         1 X9I       0.086500
     36 H23          4.0700     0.6900    -0.5060 hn         1 X9I       0.242467
@<TRIPOS>BOND
     1     1     2 1   
     2     1     4 ar  
     3     1    12 ar  
     4     2     3 1   
     5     2     6 1   
     6     4     7 ar  
     7     4    24 1   
     8     5    13 1   
     9     5    25 1   
    10     5    26 1   
    11     5    36 1   
    12     7    10 ar  
    13     7    13 1   
    14     8    10 1   
    15     8    14 1   
    16     8    27 1   
    17     9    13 2   
    18    10    11 ar  
    19    11    12 ar  
    20    11    28 1   
    21    12    29 1   
    22    14    15 1   
    23    14    30 1   
    24    14    31 1   
    25    15    16 ar  
    26    15    20 ar  
    27    16    17 ar  
    28    16    32 1   
    29    17    18 ar  
    30    17    33 1   
    31    18    19 ar  
    32    18    21 1   
    33    19    20 ar  
    34    19    34 1   
    35    20    35 1   
    36    21    22 1   
    37    21    23 1   
@<TRIPOS>SUBSTRUCTURE
     1 X9I         1 TEMP              0 ****  ****    0 ROOT
