@<TRIPOS>MOLECULE
X9X
   26    25     1     0     0
SMALL
bcc


@<TRIPOS>ATOM
      1 OAA        -0.0760   -0.0440    0.1800 oh        1 X9X     -0.622800
      2 CAG         1.3360    0.0650    0.0580 c3        1 X9X      0.102400
      3 CAI         1.8910   -0.0420    1.4810 c3        1 X9X      0.140100
      4 OAC         1.4880   -1.2620    2.0880 oh        1 X9X     -0.620800
      5 CAK         3.4350   -0.0460    1.4690 c3        1 X9X      0.118100
      6 OAE         3.8060    0.9110    0.4910 oh        1 X9X     -0.609800
      7 CAL         4.0050    0.2990    2.8600 c3        1 X9X      0.118100
      8 OAF         3.6350   -0.6590    3.8370 oh        1 X9X     -0.609800
      9 CAJ         5.5490    0.2960    2.8470 c3        1 X9X      0.140100
     10 OAD         5.9510    1.5180    2.2430 oh        1 X9X     -0.620800
     11 CAH         6.1040    0.1870    4.2700 c3        1 X9X      0.102400
     12 OAB         7.5160    0.2970    4.1480 oh        1 X9X     -0.622800
     13 H1         -0.4360    0.0240   -0.7110 ho        1 X9X      0.412000
     14 H2          1.7340   -0.7700   -0.5760 h1        1 X9X      0.050700
     15 H3          1.6200    1.0520   -0.3910 h1        1 X9X      0.050700
     16 H4          1.5110    0.8200    2.0970 h1        1 X9X      0.053700
     17 H5          0.5360   -1.3460    1.9420 ho        1 X9X      0.432000
     18 H6          3.8000   -1.0660    1.1610 h1        1 X9X      0.060700
     19 H7          4.7480    1.1000    0.5990 ho        1 X9X      0.433000
     20 H8          3.6390    1.3180    3.1680 h1        1 X9X      0.060700
     21 H9          2.6920   -0.8470    3.7310 ho        1 X9X      0.433000
     22 H10         5.9290   -0.5650    2.2290 h1        1 X9X      0.053700
     23 H11         6.9030    1.6020    2.3880 ho        1 X9X      0.432000
     24 H12         5.8220   -0.8010    4.7180 h1        1 X9X      0.050700
     25 H13         5.7060    1.0200    4.9060 h1        1 X9X      0.050700
     26 H14         7.8770    0.2280    5.0380 ho        1 X9X      0.412000
@<TRIPOS>BOND
     1    1    2 1   
     2    1   13 1   
     3    2    3 1   
     4    2   14 1   
     5    2   15 1   
     6    3    4 1   
     7    3    5 1   
     8    3   16 1   
     9    4   17 1   
    10    5    6 1   
    11    5    7 1   
    12    5   18 1   
    13    6   19 1   
    14    7    8 1   
    15    7    9 1   
    16    7   20 1   
    17    8   21 1   
    18    9   10 1   
    19    9   11 1   
    20    9   22 1   
    21   10   23 1   
    22   11   12 1   
    23   11   24 1   
    24   11   25 1   
    25   12   26 1   
@<TRIPOS>SUBSTRUCTURE
     1 X9X         1 TEMP              0 ****  ****    0 ROOT
