@<TRIPOS>MOLECULE
molecule
   26    25     1     0     0
SMALL
bcc


@<TRIPOS>ATOM
      1 OAA          0.0000     0.0000     0.0000 oh         1 X9X      -0.613800
      2 CAG          1.4290     0.0000     0.0000 c3         1 X9X       0.110400
      3 CAI          1.9400     0.0000     1.4420 c3         1 X9X       0.134100
      4 OAC          1.5630    -1.2210     2.0800 oh         1 X9X      -0.585800
      5 CAK          3.4640     0.1270     1.4430 c3         1 X9X       0.149100
      6 OAE          3.8410     1.3480     0.8050 oh         1 X9X      -0.579300
      7 CAL          3.9760     0.1260     2.8860 c3         1 X9X       0.149100
      8 OAF          3.5980    -1.0950     3.5240 oh         1 X9X      -0.579300
      9 CAJ          5.5000     0.2530     2.8870 c3         1 X9X       0.134100
     10 OAD          5.8770     1.4740     2.2480 oh         1 X9X      -0.585800
     11 CAH          6.0110     0.2530     4.3290 c3         1 X9X       0.110400
     12 OAB          7.4400     0.2530     4.3290 oh         1 X9X      -0.613800
     13 H1          -0.3140     0.1570    -0.8750 ho         1 X9X       0.406000
     14 H2           1.7900    -0.8850    -0.5110 h1         1 X9X       0.031700
     15 H3           1.7900     0.8840    -0.5110 h1         1 X9X       0.031700
     16 H4           1.5080     0.8360     1.9780 h1         1 X9X       0.050700
     17 H5           0.7010    -1.1290     2.4520 ho         1 X9X       0.409000
     18 H6           3.8960    -0.7090     0.9060 h1         1 X9X       0.053700
     19 H7           4.1910     1.1610    -0.0510 ho         1 X9X       0.403000
     20 H8           3.5440     0.9620     3.4220 h1         1 X9X       0.053700
     21 H9           3.2490    -0.9080     4.3790 ho         1 X9X       0.403000
     22 H10          5.9320    -0.5830     2.3500 h1         1 X9X       0.050700
     23 H11          6.7390     1.3820     1.8770 ho         1 X9X       0.409000
     24 H12          5.6500     1.1370     4.8390 h1         1 X9X       0.031700
     25 H13          5.6490    -0.6310     4.8400 h1         1 X9X       0.031700
     26 H14          7.7540     0.0960     5.2030 ho         1 X9X       0.406000
@<TRIPOS>BOND
     1    12    11 1
     2    11     9 1
     3     9    10 1
     4     9     7 1
     5     1     2 1
     6     4     3 1
     7     5     7 1
     8     5     3 1
     9     5     6 1
    10     7     8 1
    11     2     3 1
    12     1    13 1
    13     2    14 1
    14     2    15 1
    15     3    16 1
    16     4    17 1
    17     5    18 1
    18     6    19 1
    19     7    20 1
    20     8    21 1
    21     9    22 1
    22    10    23 1
    23    11    24 1
    24    11    25 1
    25    12    26 1
@<TRIPOS>SUBSTRUCTURE
     1 X9X         1 TEMP              0 ****  ****    0 ROOT
