@<TRIPOS>MOLECULE
molecule
   34    35     1     0     0
SMALL
bcc


@<TRIPOS>ATOM
      1 N01          0.0000     0.0000     0.0000 nu         1 XA0      -0.756600
      2 N02          3.1190     0.1200     2.7930 nz         1 XA0      -0.676400
      3 N03          5.3370     0.0060    -1.8460 no         1 XA0       0.296200
      4 C04          3.6920     0.0000     0.0000 ca         1 XA0       0.000000
      5 C05          2.3760     0.0000     0.4670 ca         1 XA0      -0.321600
      6 C06          1.3130    -0.0000    -0.4520 ca         1 XA0       0.315600
      7 C07          1.5830    -0.0000    -1.8140 ca         1 XA0      -0.212000
      8 C08          2.8900    -0.0010    -2.2600 ca         1 XA0       0.156400
      9 C09          3.9400    -0.0010    -1.3550 ca         1 XA0      -0.198200
     10 C11         -1.1040     0.1240    -0.9560 c3         1 XA0       0.267100
     11 C12         -2.4160     0.0970    -0.2150 ca         1 XA0      -0.107300
     12 C13         -2.9780     1.2770     0.2350 ca         1 XA0      -0.143500
     13 C14         -4.1840     1.2540     0.9150 ca         1 XA0       0.131400
     14 C15         -4.8260     0.0470     1.1450 ca         1 XA0       0.088900
     15 C16         -4.2600    -1.1340     0.6930 ca         1 XA0       0.131400
     16 C17         -3.0570    -1.1070     0.0080 ca         1 XA0      -0.143500
     17 O18          0.9610    -0.1070     2.3190 o          1 XA0      -0.470100
     18 O19          5.5610     0.0050    -3.0440 o          1 XA0      -0.173000
     19 O20          6.2620     0.0110    -1.0540 o          1 XA0      -0.173000
     20 Cl21         3.2200    -0.0020    -3.9640 cl         1 XA0       0.030600
     21 F22         -4.8850    -2.3110     0.9150 f          1 XA0      -0.103400
     22 F23         -4.7340     2.4070     1.3550 f          1 XA0      -0.103400
     23 F24         -6.0030     0.0230     1.8080 f          1 XA0      -0.093900
     24 HN01        -0.1940    -0.1140     0.9750 hn         1 XA0       0.484800
     25 H102         3.6370     0.9520     2.5920 hn         1 XA0       0.483133
     26 H202         3.7150    -0.6770     2.6880 hn         1 XA0       0.483133
     27 H04          4.5160     0.0000     0.7020 ha         1 XA0       0.146000
     28 H07          0.7680    -0.0010    -2.5280 ha         1 XA0       0.188000
     29 H111        -1.0120     1.0590    -1.4940 h1         1 XA0       0.071700
     30 H211        -1.0680    -0.7010    -1.6580 h1         1 XA0       0.071700
     31 H13         -2.4760     2.2200     0.0550 ha         1 XA0       0.160500
     32 H17         -2.6140    -2.0300    -0.3460 ha         1 XA0       0.160500
     33 H023         2.7340     0.1810     3.7140 hn         1 XA0       0.483133
     34 C10          2.1020    -0.0000     1.9150 c          1 XA0       0.525700
@<TRIPOS>BOND
     1     1     6 1
     2     1    10 1
     3     1    24 1
     4     2    34 1
     5     2    25 1
     6     2    26 1
     7     3    19 1
     8     4     9 ar
     9     4    27 1
    10     5     4 ar
    11     5     6 ar
    12     6     7 ar
    13     7     8 ar
    14     7    28 1
    15     8    20 1
    16     9     3 1
    17     9     8 ar
    18    34     5 1
    19    10    11 1
    20    10    29 1
    21    10    30 1
    22    11    12 ar
    23    12    13 ar
    24    12    31 1
    25    13    22 1
    26    14    13 ar
    27    14    23 1
    28    15    14 ar
    29    16    11 ar
    30    16    15 ar
    31    16    32 1
    32    17    34 2
    33    18     3 1
    34    21    15 1
    35    33     2 1
@<TRIPOS>SUBSTRUCTURE
     1 XA0         1 TEMP              0 ****  ****    0 ROOT
