@<TRIPOS>MOLECULE
XA7
   77    76     1     0     0
SMALL
bcc


@<TRIPOS>ATOM
      1 CAS          0.0000     0.0000     0.0000 c3         1 XA7       0.007900
      2 CAR          1.5300     0.0000     0.0000 c3         1 XA7      -0.025400
      3 CAQ          2.0410     0.0000     1.4420 c3         1 XA7      -0.027400
      4 CAP          3.5710     0.0000     1.4410 c3         1 XA7      -0.019400
      5 CAO          4.0810     0.0010     2.8830 c3         1 XA7      -0.054400
      6 CAN          5.6120     0.0010     2.8830 c3         1 XA7      -0.039450
      7 NAM          6.1020     0.0010     4.2680 n4         1 XA7       0.067200
      8 CAT          7.5700     0.0010     4.2670 c3         1 XA7      -0.039450
      9 CAU          8.0820     0.0010     5.7090 c3         1 XA7      -0.054400
     10 CAV          9.6120     0.0020     5.7080 c3         1 XA7      -0.019400
     11 CAW         10.1220     0.0020     7.1500 c3         1 XA7      -0.027400
     12 CAX         11.6520     0.0020     7.1500 c3         1 XA7      -0.025400
     13 CAY         12.1630     0.0020     8.5920 c3         1 XA7       0.007900
     14 CAL          5.6130     1.2000     4.9600 c3         1 XA7      -0.039450
     15 CAK          6.1220     2.4500     4.2390 c3         1 XA7      -0.054400
     16 CAJ          5.6120     3.6990     4.9600 c3         1 XA7      -0.019400
     17 CAI          6.1210     4.9480     4.2380 c3         1 XA7      -0.027400
     18 CAH          5.6120     6.1970     4.9600 c3         1 XA7      -0.025400
     19 CAG          6.1210     7.4470     4.2380 c3         1 XA7       0.007900
     20 CAF          5.6130    -1.1980     4.9600 c3         1 XA7      -0.039450
     21 CAA          6.1220    -2.4480     4.2390 c3         1 XA7      -0.054400
     22 CAB          5.6130    -3.6970     4.9610 c3         1 XA7      -0.019400
     23 CAC          6.1230    -4.9460     4.2400 c3         1 XA7      -0.027400
     24 CAD          5.6130    -6.1950     4.9610 c3         1 XA7      -0.025400
     25 CAE          6.1230    -7.4450     4.2400 c3         1 XA7       0.007900
     26 HAS1        -0.3610     0.8850     0.5110 hc         1 XA7       0.006700
     27 HAS2        -0.3610    -0.0000    -1.0210 hc         1 XA7       0.006700
     28 HAS3        -0.3610    -0.8850     0.5110 hc         1 XA7       0.006700
     29 HAR1         1.8910     0.8840    -0.5110 hc         1 XA7       0.016700
     30 HAR2         1.8910    -0.8840    -0.5110 hc         1 XA7       0.016700
     31 HAQ1         1.6800     0.8840     1.9530 hc         1 XA7       0.018700
     32 HAQ2         1.6800    -0.8840     1.9530 hc         1 XA7       0.018700
     33 HAP1         3.9320     0.8840     0.9300 hc         1 XA7       0.025700
     34 HAP2         3.9320    -0.8850     0.9310 hc         1 XA7       0.025700
     35 HAO1         3.7200     0.8860     3.3930 hc         1 XA7       0.038075
     36 HAO2         3.7200    -0.8830     3.3940 hc         1 XA7       0.038075
     37 HAN1         5.9730    -0.8830     2.3720 hx         1 XA7       0.086700
     38 HAN2         5.9730     0.8850     2.3720 hx         1 XA7       0.086700
     39 HAT1         7.9310    -0.8830     3.7560 hx         1 XA7       0.086700
     40 HAT2         7.9310     0.8860     3.7560 hx         1 XA7       0.086700
     41 HAL1         5.9740     1.2000     5.9810 hx         1 XA7       0.086700
     42 HAL2         4.5290     1.2000     4.9610 hx         1 XA7       0.086700
     43 HAF1         5.9740    -1.1980     5.9810 hx         1 XA7       0.086700
     44 HAF2         4.5290    -1.1980     4.9610 hx         1 XA7       0.086700
     45 HAU1         7.7220    -0.8840     6.2200 hc         1 XA7       0.038075
     46 HAU2         7.7210     0.8850     6.2200 hc         1 XA7       0.038075
     47 HAV1         9.9730    -0.8820     5.1970 hc         1 XA7       0.025700
     48 HAV2         9.9720     0.8870     5.1980 hc         1 XA7       0.025700
     49 HAW1         9.7610    -0.8820     7.6610 hc         1 XA7       0.018700
     50 HAW2         9.7610     0.8870     7.6610 hc         1 XA7       0.018700
     51 HAX1        12.0130     0.8870     6.6390 hc         1 XA7       0.016700
     52 HAX2        12.0130    -0.8820     6.6390 hc         1 XA7       0.016700
     53 HAY1        11.8030    -0.8820     9.1030 hc         1 XA7       0.006700
     54 HAY2        13.2470     0.0020     8.5910 hc         1 XA7       0.006700
     55 HAY3        11.8030     0.8870     9.1030 hc         1 XA7       0.006700
     56 HAK1         7.2050     2.4510     4.2390 hc         1 XA7       0.038075
     57 HAK2         5.7610     2.4500     3.2170 hc         1 XA7       0.038075
     58 HAJ1         4.5280     3.6990     4.9590 hc         1 XA7       0.025700
     59 HAJ2         5.9730     3.6990     5.9810 hc         1 XA7       0.025700
     60 HAI1         5.7600     4.9480     3.2170 hc         1 XA7       0.018700
     61 HAI2         7.2050     4.9480     4.2380 hc         1 XA7       0.018700
     62 HAH1         5.9730     6.1970     5.9810 hc         1 XA7       0.016700
     63 HAH2         4.5280     6.1970     4.9600 hc         1 XA7       0.016700
     64 HAG1         7.2050     7.4470     4.2380 hc         1 XA7       0.006700
     65 HAG2         5.7600     8.3310     4.7500 hc         1 XA7       0.006700
     66 HAG3         5.7600     7.4470     3.2170 hc         1 XA7       0.006700
     67 HAA1         5.7600    -2.4490     3.2180 hc         1 XA7       0.038075
     68 HAA2         7.2050    -2.4480     4.2380 hc         1 XA7       0.038075
     69 HAB1         4.5300    -3.6970     4.9620 hc         1 XA7       0.025700
     70 HAB2         5.9760    -3.6970     5.9820 hc         1 XA7       0.025700
     71 HAC1         5.7610    -4.9460     3.2180 hc         1 XA7       0.018700
     72 HAC2         7.2060    -4.9460     4.2390 hc         1 XA7       0.018700
     73 HAD1         4.5300    -6.1950     4.9610 hc         1 XA7       0.016700
     74 HAD2         5.9750    -6.1950     5.9820 hc         1 XA7       0.016700
     75 HAE1         7.2060    -7.4450     4.2390 hc         1 XA7       0.006700
     76 HAE2         5.7620    -8.3290     4.7510 hc         1 XA7       0.006700
     77 HAE3         5.7610    -7.4450     3.2180 hc         1 XA7       0.006700
@<TRIPOS>BOND
     1     1     2 1   
     2     1    26 1   
     3     1    27 1   
     4     1    28 1   
     5     2     3 1   
     6     2    29 1   
     7     2    30 1   
     8     3     4 1   
     9     3    31 1   
    10     3    32 1   
    11     4     5 1   
    12     4    33 1   
    13     4    34 1   
    14     5     6 1   
    15     5    35 1   
    16     5    36 1   
    17     6     7 1   
    18     6    37 1   
    19     6    38 1   
    20     7     8 1   
    21     7    14 1   
    22     7    20 1   
    23     8     9 1   
    24     8    39 1   
    25     8    40 1   
    26     9    10 1   
    27     9    45 1   
    28     9    46 1   
    29    10    11 1   
    30    10    47 1   
    31    10    48 1   
    32    11    12 1   
    33    11    49 1   
    34    11    50 1   
    35    12    13 1   
    36    12    51 1   
    37    12    52 1   
    38    13    53 1   
    39    13    54 1   
    40    13    55 1   
    41    14    15 1   
    42    14    41 1   
    43    14    42 1   
    44    15    16 1   
    45    15    56 1   
    46    15    57 1   
    47    16    17 1   
    48    16    58 1   
    49    16    59 1   
    50    17    18 1   
    51    17    60 1   
    52    17    61 1   
    53    18    19 1   
    54    18    62 1   
    55    18    63 1   
    56    19    64 1   
    57    19    65 1   
    58    19    66 1   
    59    20    21 1   
    60    20    43 1   
    61    20    44 1   
    62    21    22 1   
    63    21    67 1   
    64    21    68 1   
    65    22    23 1   
    66    22    69 1   
    67    22    70 1   
    68    23    24 1   
    69    23    71 1   
    70    23    72 1   
    71    24    25 1   
    72    24    73 1   
    73    24    74 1   
    74    25    75 1   
    75    25    76 1   
    76    25    77 1   
@<TRIPOS>SUBSTRUCTURE
     1 XA7         1 TEMP              0 ****  ****    0 ROOT
