@<TRIPOS>MOLECULE
molecule
   21    21     1     0     0
SMALL
bcc


@<TRIPOS>ATOM
      1 C5           0.0000     0.0000     0.0000 cc         1 XAA       0.343200
      2 N1           1.3170     0.0000     0.0000 nc         1 XAA      -0.662000
      3 C4          -0.6460     0.0120     1.1940 cd         1 XAA      -0.075400
      4 C2           2.0020     0.0000     1.1200 cd         1 XAA       0.323700
      5 S3           0.7440     0.0140     2.3170 ss         1 XAA      -0.171300
      6 C6           3.4940    -0.0050     1.3160 c3         1 XAA       0.142200
      7 N7           4.0650    -1.2120     0.7030 nz         1 XAA      -0.804600
      8 C8           4.1000     1.2350     0.6580 c3         1 XAA       0.124100
      9 C9           5.6170     1.2300     0.8570 c3         1 XAA      -0.148100
     10 O10          3.8030     1.2250    -0.7400 oh         1 XAA      -0.602800
     11 HC5         -0.5550    -0.0030    -0.9310 h4         1 XAA       0.070100
     12 HC4         -1.7080     0.0160     1.4070 h4         1 XAA       0.224000
     13 HC6          3.7190     0.0020     2.3760 hx         1 XAA       0.120700
     14 HN71         4.0400    -1.1240    -0.2930 hn         1 XAA       0.463133
     15 HN72         3.5310    -2.0110     0.9810 hn         1 XAA       0.463133
     16 HC8          3.6800     2.1250     1.1110 h1         1 XAA       0.092700
     17 HC1          6.0030     2.2320     0.7140 hc         1 XAA       0.062033
     18 HC2          5.8490     0.8930     1.8590 hc         1 XAA       0.062033
     19 HC3          6.0730     0.5620     0.1360 hc         1 XAA       0.062033
     20 H10          3.8560     2.1030    -1.0790 ho         1 XAA       0.448000
     21 H73          5.0120    -1.3250     1.0070 hn         1 XAA       0.463133
@<TRIPOS>BOND
     1     1     2 1
     2     1     3 2
     3     1    11 1
     4     2     4 2
     5     3     5 1
     6     3    12 1
     7     4     5 1
     8     4     6 1
     9     6     7 1
    10     6     8 1
    11     6    13 1
    12     7    14 1
    13     7    15 1
    14     8     9 1
    15     8    10 1
    16     8    16 1
    17     9    17 1
    18     9    18 1
    19     9    19 1
    20    10    20 1
    21    21     7 1
@<TRIPOS>SUBSTRUCTURE
     1 XAA         1 TEMP              0 ****  ****    0 ROOT
