@<TRIPOS>MOLECULE
molecule
   60    62     1     0     0
SMALL
bcc


@<TRIPOS>ATOM
      1 C1           0.0000     0.0000     0.0000 c          1 XAC       0.747100
      2 N1           1.4240    -0.0000     2.3480 n          1 XAC      -0.423300
      3 O1          -0.6160    -0.0010    -1.0520 o          1 XAC      -0.636500
      4 C2           2.0420     0.0000     1.1520 c          1 XAC       0.818500
      5 N2           1.3490     0.0000     0.0000 n          1 XAC      -0.464400
      6 O2           3.2570    -0.0050     1.1120 o          1 XAC      -0.645500
      7 C3          -2.0630     0.0160     2.9520 cc         1 XAC       0.520000
      8 N3          -0.8310     0.0080     3.4230 nd         1 XAC      -0.717000
      9 C4           0.0390     0.0050     2.4160 cd         1 XAC       0.512200
     10 N4          -2.0240     0.0120     1.5910 na         1 XAC      -0.243900
     11 O4          -8.8710     0.0380     7.5440 o          1 XAC      -0.541100
     12 C5          -0.6900     0.0060     1.2300 cc         1 XAC      -0.353200
     13 N5         -10.3830     0.0530     5.9210 ns         1 XAC      -0.601900
     14 C6           2.0710    -0.0000    -1.2750 c3         1 XAC       0.112000
     15 N6         -13.9230     0.0690     7.1050 nz         1 XAC      -0.805600
     16 C7           2.3220     1.4430    -1.7190 c3         1 XAC      -0.103400
     17 C8           2.2170    -0.0010     3.5800 c3         1 XAC       0.115000
     18 C9           2.4930     1.4420     4.0100 c3         1 XAC      -0.105400
     19 C10          3.3200     1.4400     5.2960 c3         1 XAC      -0.090100
     20 C11          3.0750     1.4420    -3.0510 c3         1 XAC      -0.089100
     21 C12         -5.5970     0.0280     5.3080 ca         1 XAC       0.140100
     22 C13         -4.3540     0.0180     5.9250 ca         1 XAC      -0.185500
     23 C14         -3.2040     0.0150     5.1650 ca         1 XAC      -0.059500
     24 C15         -3.2920     0.0200     3.7710 ca         1 XAC      -0.151500
     25 C16         -4.5450     0.0300     3.1540 ca         1 XAC      -0.059500
     26 C17         -5.6890     0.0280     3.9220 ca         1 XAC      -0.185500
     27 C18         -7.9730     0.0420     5.3620 c3         1 XAC       0.078400
     28 C19         -9.1080     0.0430     6.3540 c          1 XAC       0.661100
     29 C20        -11.4840     0.0550     6.8860 c3         1 XAC       0.101000
     30 C21        -12.8190     0.0660     6.1370 c3         1 XAC       0.071800
     31 HN4         -2.8100     0.0170     0.9710 hn         1 XAC       0.320700
     32 HN5        -10.5770     0.0570     4.9390 hn         1 XAC       0.323500
     33 H6           3.0180    -0.5110    -1.1540 h1         1 XAC       0.079700
     34 H6A          1.4780    -0.5110    -2.0250 h1         1 XAC       0.079700
     35 HN6        -13.8680    -0.7510     7.6760 hn         1 XAC       0.463133
     36 HN6A       -14.7960     0.0760     6.6150 hn         1 XAC       0.463133
     37 H7           1.3740     1.9540    -1.8410 hc         1 XAC       0.053700
     38 H7A          2.9140     1.9540    -0.9700 hc         1 XAC       0.053700
     39 H8           3.1560    -0.5120     3.4050 h1         1 XAC       0.074700
     40 H8A          1.6690    -0.5120     4.3620 h1         1 XAC       0.074700
     41 H9           3.0420     1.9530     3.2280 hc         1 XAC       0.053700
     42 H9A          1.5540     1.9520     4.1850 hc         1 XAC       0.053700
     43 H10          4.2610     0.9320     5.1200 hc         1 XAC       0.037700
     44 H10A         3.5130     2.4610     5.6020 hc         1 XAC       0.037700
     45 H10B         2.7730     0.9270     6.0770 hc         1 XAC       0.037700
     46 H11          2.4750     0.9460    -3.8050 hc         1 XAC       0.038367
     47 H11A         4.0150     0.9160    -2.9340 hc         1 XAC       0.038367
     48 H11B         3.2680     2.4630    -3.3570 hc         1 XAC       0.038367
     49 H13         -4.2870     0.0140     7.0070 ha         1 XAC       0.143000
     50 H14         -2.2340     0.0070     5.6470 ha         1 XAC       0.152000
     51 H16         -4.6170     0.0310     2.0730 ha         1 XAC       0.152000
     52 H17         -6.6610     0.0360     3.4440 ha         1 XAC       0.143000
     53 H18         -8.0430    -0.8390     4.7350 h1         1 XAC       0.060700
     54 H18A        -8.0330     0.9290     4.7440 h1         1 XAC       0.060700
     55 H20        -11.4250    -0.8320     7.5040 h1         1 XAC       0.074700
     56 H20A       -11.4150     0.9370     7.5110 h1         1 XAC       0.074700
     57 H21        -12.8890    -0.8160     5.5110 hx         1 XAC       0.116700
     58 H21A       -12.8790     0.9530     5.5180 hx         1 XAC       0.116700
     59 H63        -13.8590     0.8830     7.6830 hn         1 XAC       0.463133
     60 O3          -6.7280     0.0310     6.0610 os         1 XAC      -0.293900
@<TRIPOS>BOND
     1     1     3 2
     2     1     5 1
     3     1    12 1
     4     2     4 1
     5     2     9 1
     6     2    17 1
     7     4     5 1
     8     4     6 2
     9     5    14 1
    10     7     8 2
    11     7    10 1
    12     7    24 1
    13     8     9 1
    14    60    21 1
    15    60    27 1
    16     9    12 2
    17    10    12 1
    18    11    28 2
    19    13    28 1
    20    13    29 1
    21    14    16 1
    22    15    30 1
    23    16    20 1
    24    17    18 1
    25    18    19 1
    26    21    22 ar
    27    21    26 ar
    28    22    23 ar
    29    23    24 ar
    30    24    25 ar
    31    25    26 ar
    32    27    28 1
    33    29    30 1
    34    10    31 1
    35    13    32 1
    36    14    33 1
    37    14    34 1
    38    15    35 1
    39    15    36 1
    40    16    37 1
    41    16    38 1
    42    17    39 1
    43    17    40 1
    44    18    41 1
    45    18    42 1
    46    19    43 1
    47    19    44 1
    48    19    45 1
    49    20    46 1
    50    20    47 1
    51    20    48 1
    52    22    49 1
    53    23    50 1
    54    25    51 1
    55    26    52 1
    56    27    53 1
    57    27    54 1
    58    29    55 1
    59    29    56 1
    60    30    57 1
    61    30    58 1
    62    59    15 1
@<TRIPOS>SUBSTRUCTURE
     1 XAC         1 TEMP              0 ****  ****    0 ROOT
