@<TRIPOS>MOLECULE
XAC
   60    62     1     0     0
SMALL
bcc


@<TRIPOS>ATOM
      1 C1           0.0000     0.0000     0.0000 c          1 XAC       0.682100
      2 N1           1.4240    -0.0000     2.3480 n          1 XAC      -0.006300
      3 O1          -0.6160    -0.0010    -1.0520 o          1 XAC      -0.685500
      4 C2           2.0420     0.0000     1.1520 c          1 XAC       0.600500
      5 N2           1.3490     0.0000     0.0000 n          1 XAC      -0.077400
      6 O2           3.2570    -0.0050     1.1120 o          1 XAC      -0.697500
      7 C3          -2.0630     0.0160     2.9520 cc         1 XAC       0.283000
      8 N3          -0.8310     0.0080     3.4230 nd         1 XAC      -0.618000
      9 C4           0.0390     0.0050     2.4160 cd         1 XAC       0.338200
     10 N4          -2.0240     0.0120     1.5910 na         1 XAC       0.350100
     11 O4          -8.8710     0.0380     7.5440 o          1 XAC      -0.580100
     12 C5          -0.6900     0.0060     1.2300 cc         1 XAC      -0.561200
     13 N5         -10.3830     0.0530     5.9210 ns         1 XAC      -0.222900
     14 C6           2.0710    -0.0000    -1.2750 c3         1 XAC       0.035000
     15 N6         -13.9230     0.0690     7.1050 nz         1 XAC       0.099400
     16 C7           2.3220     1.4430    -1.7190 c3         1 XAC      -0.046400
     17 C8           2.2170    -0.0010     3.5800 c3         1 XAC       0.027000
     18 C9           2.4930     1.4420     4.0100 c3         1 XAC      -0.048400
     19 C10          3.3200     1.4400     5.2960 c3         1 XAC       0.012900
     20 C11          3.0750     1.4420    -3.0510 c3         1 XAC       0.013900
     21 C12         -5.5970     0.0280     5.3080 ca         1 XAC       0.140100
     22 C13         -4.3540     0.0180     5.9250 ca         1 XAC      -0.168000
     23 C14         -3.2040     0.0150     5.1650 ca         1 XAC      -0.036500
     24 C15         -3.2920     0.0200     3.7710 ca         1 XAC      -0.150500
     25 C16         -4.5450     0.0300     3.1540 ca         1 XAC      -0.036500
     26 C17         -5.6890     0.0280     3.9220 ca         1 XAC      -0.168000
     27 C18         -7.9730     0.0420     5.3620 c3         1 XAC       0.148400
     28 C19         -9.1080     0.0430     6.3540 c          1 XAC       0.571100
     29 C20        -11.4840     0.0550     6.8860 c3         1 XAC       0.060000
     30 C21        -12.8190     0.0660     6.1370 c3         1 XAC      -0.068200
     31 HN4         -2.8100     0.0170     0.9710 hn         1 XAC       0.132700
     32 HN5        -10.5770     0.0570     4.9390 hn         1 XAC       0.185500
     33 H6           3.0180    -0.5110    -1.1540 h1         1 XAC       0.051200
     34 H6A          1.4780    -0.5110    -2.0250 h1         1 XAC       0.051200
     35 HN6        -13.8680    -0.7510     7.6760 hn         1 XAC       0.226800
     36 HN6A       -14.7960     0.0760     6.6150 hn         1 XAC       0.226800
     37 H7           1.3740     1.9540    -1.8410 hc         1 XAC       0.022700
     38 H7A          2.9140     1.9540    -0.9700 hc         1 XAC       0.022700
     39 H8           3.1560    -0.5120     3.4050 h1         1 XAC       0.047200
     40 H8A          1.6690    -0.5120     4.3620 h1         1 XAC       0.047200
     41 H9           3.0420     1.9530     3.2280 hc         1 XAC       0.023200
     42 H9A          1.5540     1.9520     4.1850 hc         1 XAC       0.023200
     43 H10          4.2610     0.9320     5.1200 hc         1 XAC       0.003700
     44 H10A         3.5130     2.4610     5.6020 hc         1 XAC       0.003700
     45 H10B         2.7730     0.9270     6.0770 hc         1 XAC       0.003700
     46 H11          2.4750     0.9460    -3.8050 hc         1 XAC       0.004033
     47 H11A         4.0150     0.9160    -2.9340 hc         1 XAC       0.004033
     48 H11B         3.2680     2.4630    -3.3570 hc         1 XAC       0.004033
     49 H13         -4.2870     0.0140     7.0070 ha         1 XAC       0.118000
     50 H14         -2.2340     0.0070     5.6470 ha         1 XAC       0.117000
     51 H16         -4.6170     0.0310     2.0730 ha         1 XAC       0.117000
     52 H17         -6.6610     0.0360     3.4440 ha         1 XAC       0.118000
     53 H18         -8.0430    -0.8390     4.7350 h1         1 XAC       0.019700
     54 H18A        -8.0330     0.9290     4.7440 h1         1 XAC       0.019700
     55 H20        -11.4250    -0.8320     7.5040 h1         1 XAC       0.040700
     56 H20A       -11.4150     0.9370     7.5110 h1         1 XAC       0.040700
     57 H21        -12.8890    -0.8160     5.5110 hx         1 XAC       0.086700
     58 H21A       -12.8790     0.9530     5.5180 hx         1 XAC       0.086700
     59 H63        -13.8590     0.8830     7.6830 hn         1 XAC       0.226800
     60 O3          -6.7280     0.0310     6.0610 os         1 XAC      -0.267900
@<TRIPOS>BOND
     1     1     3 2   
     2     1     5 1   
     3     1    12 1   
     4     2     4 1   
     5     2     9 1   
     6     2    17 1   
     7     4     5 1   
     8     4     6 2   
     9     5    14 1   
    10     7     8 2   
    11     7    10 1   
    12     7    24 1   
    13     8     9 1   
    14     9    12 2   
    15    10    12 1   
    16    10    31 1   
    17    11    28 2   
    18    13    28 1   
    19    13    29 1   
    20    13    32 1   
    21    14    16 1   
    22    14    33 1   
    23    14    34 1   
    24    15    30 1   
    25    15    35 1   
    26    15    36 1   
    27    15    59 1   
    28    16    20 1   
    29    16    37 1   
    30    16    38 1   
    31    17    18 1   
    32    17    39 1   
    33    17    40 1   
    34    18    19 1   
    35    18    41 1   
    36    18    42 1   
    37    19    43 1   
    38    19    44 1   
    39    19    45 1   
    40    20    46 1   
    41    20    47 1   
    42    20    48 1   
    43    21    22 ar  
    44    21    26 ar  
    45    21    60 1   
    46    22    23 ar  
    47    22    49 1   
    48    23    24 ar  
    49    23    50 1   
    50    24    25 ar  
    51    25    26 ar  
    52    25    51 1   
    53    26    52 1   
    54    27    28 1   
    55    27    53 1   
    56    27    54 1   
    57    27    60 1   
    58    29    30 1   
    59    29    55 1   
    60    29    56 1   
    61    30    57 1   
    62    30    58 1   
@<TRIPOS>SUBSTRUCTURE
     1 XAC         1 TEMP              0 ****  ****    0 ROOT
