@<TRIPOS>MOLECULE
XAH
   61    63     1     0     0
SMALL
bcc


@<TRIPOS>ATOM
      1 N1           0.0000     0.0000     0.0000 nz         1 XAH       0.091400
      2 C2           1.4690     0.0000     0.0000 c3         1 XAH      -0.050200
      3 C3           1.9790     0.0000     1.4430 c3         1 XAH      -0.028400
      4 C4           3.5080    -0.0000     1.4430 c3         1 XAH      -0.031400
      5 C5           4.0180    -0.0000     2.8860 c3         1 XAH      -0.030400
      6 C6           5.5480    -0.0010     2.8860 c3         1 XAH      -0.161500
      7 N7           6.0380    -1.2560     2.3010 nz         1 XAH       0.096400
      8 C8           6.0500     0.1230     4.3020 c          1 XAH       0.462100
      9 O9           6.4240    -0.8630     4.9010 o          1 XAH      -0.660100
     10 N10          6.0840     1.3300     4.9020 ns         1 XAH       0.217600
     11 O11          6.5560     1.4460     6.2320 os         1 XAH      -0.323500
     12 P12          6.5330     2.9500     6.8050 p5         1 XAH       0.929800
     13 O13          7.4660     3.8880     5.8870 o          1 XAH      -0.652000
     14 O14          5.1460     3.4640     6.7880 o          1 XAH      -0.652000
     15 O15          7.0890     2.9560     8.3170 os         1 XAH      -0.486200
     16 C16          7.0970     4.1260     9.1380 c3         1 XAH       0.314400
     17 C17          7.6880     3.7830    10.5070 c3         1 XAH       0.141100
     18 O18          9.0790     3.4480    10.3690 os         1 XAH      -0.383600
     19 C19          7.6030     5.0100    11.4350 c3         1 XAH       0.125100
     20 O20          6.8170     4.7090    12.5910 oh         1 XAH      -0.555800
     21 C21          9.0720     5.2840    11.8370 c3         1 XAH       0.128100
     22 O22          9.1680     5.6290    13.2210 oh         1 XAH      -0.541800
     23 C23          9.7450     3.9160    11.5600 c3         1 XAH       0.149800
     24 N24         11.1800     4.0870    11.3160 na         1 XAH       0.213000
     25 C25         11.7720     4.2920    10.1050 cc         1 XAH       0.253700
     26 N26         13.0610     4.4010    10.2530 nd         1 XAH      -0.509100
     27 C27         13.3760     4.2730    11.5650 ca         1 XAH      -0.246200
     28 C28         12.1720     4.0760    12.2620 ca         1 XAH       0.273800
     29 N29         12.2080     3.9280    13.5830 nb         1 XAH      -0.668000
     30 C30         13.3520     3.9670    14.2320 ca         1 XAH       0.684900
     31 N31         14.5080     4.1530    13.6210 nb         1 XAH      -0.748000
     32 C32         14.5730     4.3030    12.3020 ca         1 XAH       0.589200
     33 N33         15.7880     4.4990    11.6700 nv         1 XAH      -0.487500
     34 HN1         -0.3340     0.8310     0.4470 hn         1 XAH       0.228800
     35 HN1A        -0.3340    -0.0280    -0.9430 hn         1 XAH       0.228800
     36 H2           1.8300     0.8840    -0.5110 hx         1 XAH       0.085200
     37 H2A          1.8300    -0.8840    -0.5110 hx         1 XAH       0.085200
     38 H3           1.6180    -0.8840     1.9540 hc         1 XAH       0.045700
     39 H3A          1.6180     0.8840     1.9540 hc         1 XAH       0.045700
     40 H4           3.8690    -0.8850     0.9330 hc         1 XAH       0.020200
     41 H4A          3.8700     0.8840     0.9330 hc         1 XAH       0.020200
     42 H5           3.6570     0.8840     3.3960 hc         1 XAH       0.064700
     43 H5A          3.6570    -0.8850     3.3960 hc         1 XAH       0.064700
     44 H6           5.9100     0.8360     2.3000 hx         1 XAH       0.091700
     45 HN7          5.5000    -2.0220     2.6550 hn         1 XAH       0.224467
     46 HN7A         7.0000    -1.3840     2.5440 hn         1 XAH       0.224467
     47 HN10         5.8240     2.1500     4.3900 hn         1 XAH       0.155500
     48 H16          7.6990     4.8930     8.6660 h1         1 XAH      -0.005800
     49 H16A         6.0840     4.4870     9.2620 h1         1 XAH      -0.005800
     50 H17          7.1530     2.9520    10.9480 h1         1 XAH       0.043700
     51 H19          7.1940     5.8590    10.9010 h1         1 XAH       0.014700
     52 HO20         6.0610     5.2720    12.6130 ho         1 XAH       0.387000
     53 H21          9.5020     6.0560    11.2110 h1         1 XAH       0.021700
     54 HO22         9.1250     6.5660    13.3160 ho         1 XAH       0.387000
     55 H23          9.5720     3.2350    12.3840 h2         1 XAH       0.069700
     56 H25         11.2480     4.3540     9.1590 h5         1 XAH       0.046800
     57 H30         13.3450     3.8500    15.3090 h5         1 XAH      -0.005900
     58 HN33        16.6340     4.5070    12.2040 hn         1 XAH       0.274800
     59 HN3A        15.8210     4.6310    10.6780 hn         1 XAH       0.274800
     60 H13         -0.3340    -0.8000     0.5010 hn         1 XAH       0.228800
     61 H73          5.9350    -1.2230     1.3060 hn         1 XAH       0.224467
@<TRIPOS>BOND
     1     1     2 1   
     2     1    34 1   
     3     1    35 1   
     4     1    60 1   
     5     2     3 1   
     6     2    36 1   
     7     2    37 1   
     8     3     4 1   
     9     3    38 1   
    10     3    39 1   
    11     4     5 1   
    12     4    40 1   
    13     4    41 1   
    14     5     6 1   
    15     5    42 1   
    16     5    43 1   
    17     6     7 1   
    18     6     8 1   
    19     6    44 1   
    20     7    45 1   
    21     7    46 1   
    22     7    61 1   
    23     8     9 2   
    24     8    10 1   
    25    10    11 1   
    26    10    47 1   
    27    11    12 1   
    28    12    13 1   
    29    12    14 1   
    30    12    15 1   
    31    15    16 1   
    32    16    17 1   
    33    16    48 1   
    34    16    49 1   
    35    17    18 1   
    36    17    19 1   
    37    17    50 1   
    38    18    23 1   
    39    19    20 1   
    40    19    21 1   
    41    19    51 1   
    42    20    52 1   
    43    21    22 1   
    44    21    23 1   
    45    21    53 1   
    46    22    54 1   
    47    23    24 1   
    48    23    55 1   
    49    24    25 1   
    50    24    28 1   
    51    25    26 2   
    52    25    56 1   
    53    26    27 1   
    54    27    28 ar  
    55    27    32 ar  
    56    28    29 ar  
    57    29    30 ar  
    58    30    31 ar  
    59    30    57 1   
    60    31    32 ar  
    61    32    33 1   
    62    33    58 1   
    63    33    59 1   
@<TRIPOS>SUBSTRUCTURE
     1 XAH         1 TEMP              0 ****  ****    0 ROOT
