@<TRIPOS>MOLECULE
XAN
   15    16     1     0     0
SMALL
bcc


@<TRIPOS>ATOM
      1 N9         -0.0240   -0.0020    0.0370 na        1 XAN     -0.336900
      2 C4          1.3710   -0.0010    0.0170 cc        1 XAN     -0.009000
      3 N3          2.2870    0.0020    1.0500 n         1 XAN     -0.450100
      4 C2          3.6650    0.0030    0.7150 c         1 XAN      0.822500
      5 O2          4.5010    0.0050    1.6430 o         1 XAN     -0.634500
      6 N1          4.0540    0.0010   -0.6300 n         1 XAN     -0.591500
      7 C6          3.1670   -0.0020   -1.7330 c         1 XAN      0.658000
      8 O6          3.6410   -0.0030   -2.8750 o         1 XAN     -0.575500
      9 C5          1.7560   -0.0030   -1.3660 cd        1 XAN      0.191800
     10 N7          0.6180   -0.0050   -2.1750 nd        1 XAN     -0.567000
     11 C8         -0.4220   -0.0040   -1.3230 cc        1 XAN      0.389400
     12 HN9        -0.6090   -0.0010    0.8290 hn        1 XAN      0.313700
     13 HN3         2.0300    0.0030    2.0080 hn        1 XAN      0.355500
     14 HN1         5.0370    0.0020   -0.8060 hn        1 XAN      0.358500
     15 H8         -1.4810   -0.0060   -1.6050 h5        1 XAN      0.074100
@<TRIPOS>BOND
     1    1    2 1   
     2    1   11 1   
     3    1   12 1   
     4    2    3 1   
     5    2    9 2   
     6    3    4 1   
     7    3   13 1   
     8    4    5 2   
     9    4    6 1   
    10    6    7 1   
    11    6   14 1   
    12    7    8 2   
    13    7    9 1   
    14    9   10 1   
    15   10   11 2   
    16   11   15 1   
@<TRIPOS>SUBSTRUCTURE
     1 XAN         1 TEMP              0 ****  ****    0 ROOT
