@<TRIPOS>MOLECULE
XAO
   47    47     1     0     0
SMALL
bcc


@<TRIPOS>ATOM
      1 C1           1.4690     0.0000     0.0000 c3         1 XAO      -0.099500
      2 N            0.0000     0.0000     0.0000 nz         1 XAO       0.053400
      3 C2           1.9790     0.0000     1.4410 c3         1 XAO       0.154100
      4 O2           1.5040     1.1670     2.1150 oh         1 XAO      -0.599800
      5 C3           1.4680    -1.2480     2.1630 c3         1 XAO       0.152100
      6 O3           1.9440    -2.4150     1.4890 oh         1 XAO      -0.561800
      7 C4           1.9790    -1.2490     3.6050 c3         1 XAO      -0.033400
      8 C5           1.4670    -2.4970     4.3270 c3         1 XAO      -0.056700
      9 C6           1.9780    -2.4980     5.7690 c3         1 XAO       0.006900
     10 C7          -0.0620    -2.4970     4.3270 c3         1 XAO       0.006900
     11 C7'          1.9790     1.2480    -0.7220 c3         1 XAO      -0.040400
     12 C1'          1.4690     1.2490    -2.1640 c3         1 XAO      -0.069700
     13 C2'          1.9800     2.4980    -2.8850 c3         1 XAO      -0.021400
     14 C6'          1.9780    -0.0000    -2.8850 c3         1 XAO      -0.021400
     15 C3'          1.4710     2.4970    -4.3280 c3         1 XAO      -0.021400
     16 C5'          1.4690    -0.0000    -4.3270 c3         1 XAO      -0.021400
     17 C4'          1.9790     1.2490    -5.0490 c3         1 XAO      -0.024400
     18 H1           1.8300    -0.8850    -0.5100 hx         1 XAO       0.114700
     19 HN1         -0.3340    -0.4110    -0.8490 hn         1 XAO       0.231467
     20 HN2         -0.3340    -0.5300     0.7810 hn         1 XAO       0.231467
     21 H2           3.0620    -0.0010     1.4410 h1         1 XAO       0.063700
     22 HO2          2.2360     1.6520     2.4590 ho         1 XAO       0.438000
     23 H3           0.3840    -1.2470     2.1640 h1         1 XAO      -0.004300
     24 HO3          1.2110    -2.9080     1.1580 ho         1 XAO       0.392000
     25 H41          3.0620    -1.2500     3.6040 hc         1 XAO       0.037200
     26 H42          1.6190    -0.3640     4.1160 hc         1 XAO       0.037200
     27 H5           1.8280    -3.3820     3.8160 hc         1 XAO       0.041700
     28 H61          3.0610    -2.4620     5.7680 hc         1 XAO       0.006700
     29 H62          1.5880    -1.6330     6.2910 hc         1 XAO       0.006700
     30 H63          1.6480    -3.4010     6.2680 hc         1 XAO       0.006700
     31 H71         -0.4230    -1.5070     4.5780 hc         1 XAO       0.006700
     32 H72         -0.4230    -3.2090     5.0580 hc         1 XAO       0.006700
     33 H73         -0.4230    -2.7740     3.3440 hc         1 XAO       0.006700
     34 H7'1         3.0630     1.2480    -0.7220 hc         1 XAO       0.057200
     35 H7'2         1.6190     2.1330    -0.2110 hc         1 XAO       0.057200
     36 H1'          0.3860     1.2490    -2.1680 hc         1 XAO       0.003700
     37 H2'1         3.0630     2.4960    -2.8860 hc         1 XAO       0.019200
     38 H2'2         1.6150     3.3820    -2.3750 hc         1 XAO       0.019200
     39 H6'1         3.0620     0.0010    -2.8860 hc         1 XAO       0.019200
     40 H6'2         1.6130    -0.8840    -2.3750 hc         1 XAO       0.019200
     41 H3'1         1.8360     3.3810    -4.8380 hc         1 XAO       0.022450
     42 H3'2         0.3870     2.4960    -4.3270 hc         1 XAO       0.022450
     43 H5'1         0.3860     0.0010    -4.3270 hc         1 XAO       0.022450
     44 H5'2         1.8340    -0.8840    -4.8370 hc         1 XAO       0.022450
     45 H4'1         3.0620     1.2490    -5.0470 hc         1 XAO       0.028700
     46 H4'2         1.6140     1.2490    -6.0680 hc         1 XAO       0.028700
     47 HN3         -0.3340     0.9410     0.0650 hn         1 XAO       0.231467
@<TRIPOS>BOND
     1     1     2 1   
     2     1     3 1   
     3     1    11 1   
     4     1    18 1   
     5     2    19 1   
     6     2    20 1   
     7     2    47 1   
     8     3     4 1   
     9     3     5 1   
    10     3    21 1   
    11     4    22 1   
    12     5     6 1   
    13     5     7 1   
    14     5    23 1   
    15     6    24 1   
    16     7     8 1   
    17     7    25 1   
    18     7    26 1   
    19     8     9 1   
    20     8    10 1   
    21     8    27 1   
    22     9    28 1   
    23     9    29 1   
    24     9    30 1   
    25    10    31 1   
    26    10    32 1   
    27    10    33 1   
    28    11    12 1   
    29    11    34 1   
    30    11    35 1   
    31    12    13 1   
    32    12    14 1   
    33    12    36 1   
    34    13    15 1   
    35    13    37 1   
    36    13    38 1   
    37    14    16 1   
    38    14    39 1   
    39    14    40 1   
    40    15    17 1   
    41    15    41 1   
    42    15    42 1   
    43    16    17 1   
    44    16    43 1   
    45    16    44 1   
    46    17    45 1   
    47    17    46 1   
@<TRIPOS>SUBSTRUCTURE
     1 XAO         1 TEMP              0 ****  ****    0 ROOT
