@<TRIPOS>MOLECULE
molecule
   47    47     1     0     0
SMALL
bcc


@<TRIPOS>ATOM
      1 C1           1.4690     0.0000     0.0000 c3         1 XAO       0.091500
      2 N            0.0000     0.0000     0.0000 nz         1 XAO      -0.806600
      3 C2           1.9790     0.0000     1.4410 c3         1 XAO       0.104100
      4 O2           1.5040     1.1670     2.1150 oh         1 XAO      -0.614800
      5 C3           1.4680    -1.2480     2.1630 c3         1 XAO       0.121100
      6 O3           1.9440    -2.4150     1.4890 oh         1 XAO      -0.585800
      7 C4           1.9790    -1.2490     3.6050 c3         1 XAO      -0.080400
      8 C5           1.4670    -2.4970     4.3270 c3         1 XAO      -0.078700
      9 C6           1.9780    -2.4980     5.7690 c3         1 XAO      -0.089600
     10 C7          -0.0620    -2.4970     4.3270 c3         1 XAO      -0.089600
     11 C7'          1.9790     1.2480    -0.7220 c3         1 XAO      -0.107400
     12 C1'          1.4690     1.2490    -2.1640 c3         1 XAO      -0.088700
     13 C2'          1.9800     2.4980    -2.8850 c3         1 XAO      -0.077400
     14 C6'          1.9780    -0.0000    -2.8850 c3         1 XAO      -0.077400
     15 C3'          1.4710     2.4970    -4.3280 c3         1 XAO      -0.079400
     16 C5'          1.4690    -0.0000    -4.3270 c3         1 XAO      -0.079400
     17 C4'          1.9790     1.2490    -5.0490 c3         1 XAO      -0.081400
     18 H1           1.8300    -0.8850    -0.5100 hx         1 XAO       0.131700
     19 HN1         -0.3340    -0.4110    -0.8490 hn         1 XAO       0.455467
     20 HN2         -0.3340    -0.5300     0.7810 hn         1 XAO       0.455467
     21 H2           3.0620    -0.0010     1.4410 h1         1 XAO       0.103700
     22 HO2          2.2360     1.6520     2.4590 ho         1 XAO       0.445000
     23 H3           0.3840    -1.2470     2.1640 h1         1 XAO       0.018700
     24 HO3          1.2110    -2.9080     1.1580 ho         1 XAO       0.407000
     25 H41          3.0620    -1.2500     3.6040 hc         1 XAO       0.066200
     26 H42          1.6190    -0.3640     4.1160 hc         1 XAO       0.066200
     27 H5           1.8280    -3.3820     3.8160 hc         1 XAO       0.067700
     28 H61          3.0610    -2.4620     5.7680 hc         1 XAO       0.039367
     29 H62          1.5880    -1.6330     6.2910 hc         1 XAO       0.039367
     30 H63          1.6480    -3.4010     6.2680 hc         1 XAO       0.039367
     31 H71         -0.4230    -1.5070     4.5780 hc         1 XAO       0.039367
     32 H72         -0.4230    -3.2090     5.0580 hc         1 XAO       0.039367
     33 H73         -0.4230    -2.7740     3.3440 hc         1 XAO       0.039367
     34 H7'1         3.0630     1.2480    -0.7220 hc         1 XAO       0.087200
     35 H7'2         1.6190     2.1330    -0.2110 hc         1 XAO       0.087200
     36 H1'          0.3860     1.2490    -2.1680 hc         1 XAO       0.024700
     37 H2'1         3.0630     2.4960    -2.8860 hc         1 XAO       0.046450
     38 H2'2         1.6150     3.3820    -2.3750 hc         1 XAO       0.046450
     39 H6'1         3.0620     0.0010    -2.8860 hc         1 XAO       0.046450
     40 H6'2         1.6130    -0.8840    -2.3750 hc         1 XAO       0.046450
     41 H3'1         1.8360     3.3810    -4.8380 hc         1 XAO       0.052200
     42 H3'2         0.3870     2.4960    -4.3270 hc         1 XAO       0.052200
     43 H5'1         0.3860     0.0010    -4.3270 hc         1 XAO       0.052200
     44 H5'2         1.8340    -0.8840    -4.8370 hc         1 XAO       0.052200
     45 H4'1         3.0620     1.2490    -5.0470 hc         1 XAO       0.058200
     46 H4'2         1.6140     1.2490    -6.0680 hc         1 XAO       0.058200
     47 HN3         -0.3340     0.9410     0.0650 hn         1 XAO       0.455467
@<TRIPOS>BOND
     1     1     2 1
     2     1     3 1
     3     1    11 1
     4     1    18 1
     5     2    19 1
     6     2    20 1
     7     3     4 1
     8     3     5 1
     9     3    21 1
    10     4    22 1
    11     5     6 1
    12     5     7 1
    13     5    23 1
    14     6    24 1
    15     7     8 1
    16     7    25 1
    17     7    26 1
    18     8     9 1
    19     8    10 1
    20     8    27 1
    21     9    28 1
    22     9    29 1
    23     9    30 1
    24    10    31 1
    25    10    32 1
    26    10    33 1
    27    11    12 1
    28    11    34 1
    29    11    35 1
    30    12    13 1
    31    12    14 1
    32    12    36 1
    33    13    15 1
    34    13    37 1
    35    13    38 1
    36    14    16 1
    37    14    39 1
    38    14    40 1
    39    15    17 1
    40    15    41 1
    41    15    42 1
    42    16    17 1
    43    16    43 1
    44    16    44 1
    45    17    45 1
    46    17    46 1
    47    47     2 1
@<TRIPOS>SUBSTRUCTURE
     1 XAO         1 TEMP              0 ****  ****    0 ROOT
