@<TRIPOS>MOLECULE
molecule
   18    17     1     0     0
SMALL
bcc


@<TRIPOS>ATOM
      1 N1           0.0000     0.0000     0.0000 nz         1 XAP      -0.794600
      2 C1           1.4380     0.0000     0.0000 c3         1 XAP       0.091800
      3 C2           2.0210     0.0000     1.4070 c3         1 XAP      -0.106400
      4 C3           3.5450     0.0210     1.4150 c3         1 XAP       0.080400
      5 O1           3.9950     0.0020     2.7630 os         1 XAP      -0.123100
      6 N2           5.4500     0.0220     2.7370 nz         1 XAP      -0.615100
      7 HN11        -0.3340     0.8190     0.4680 hn         1 XAP       0.473800
      8 HN12        -0.3340    -0.0040    -0.9440 hn         1 XAP       0.473800
      9 H11          1.7880    -0.8810    -0.5240 hx         1 XAP       0.119700
     10 H12          1.7880     0.8810    -0.5240 hx         1 XAP       0.119700
     11 H21          1.6820    -0.8890     1.9260 hc         1 XAP       0.097200
     12 H22          1.6570     0.8730     1.9360 hc         1 XAP       0.097200
     13 H31          3.8980     0.9210     0.9260 h1         1 XAP       0.079700
     14 H32          3.9230    -0.8500     0.8930 h1         1 XAP       0.079700
     15 HN21         5.8000     0.0070     3.6740 hn         1 XAP       0.483800
     16 HN22         5.7850    -0.7810     2.2430 hn         1 XAP       0.483800
     17 H13         -0.3340    -0.8330     0.4430 hn         1 XAP       0.473800
     18 H23          5.7630     0.8290     2.2350 hn         1 XAP       0.483800
@<TRIPOS>BOND
     1     1     2 1
     2     1     7 1
     3     1     8 1
     4     2     3 1
     5     2     9 1
     6     2    10 1
     7     3     4 1
     8     3    11 1
     9     3    12 1
    10     4     5 1
    11     4    13 1
    12     4    14 1
    13     5     6 1
    14     6    15 1
    15     6    16 1
    16    17     1 1
    17    18     6 1
@<TRIPOS>SUBSTRUCTURE
     1 XAP         1 TEMP              0 ****  ****    0 ROOT
