@<TRIPOS>MOLECULE
XAV
   32    34     1     0     0
SMALL
bcc


@<TRIPOS>ATOM
      1 N1         -0.0020   -0.4130   -0.0060 nb        1 XAV     -0.764000
      2 C2          1.3100   -0.0180    0.0180 cp        1 XAV      0.731500
      3 N3          1.9970    0.3980    1.1260 nb        1 XAV     -0.704000
      4 C4          1.3150    0.4280    2.2970 ca        1 XAV      0.463600
      5 C5         -0.0460    0.0500    2.3960 ca        1 XAV     -0.319900
      6 C6         -0.6570   -0.3750    1.1840 ca        1 XAV      0.670600
      7 O6         -1.9720   -0.7540    1.2480 oh        1 XAV     -0.604300
      8 FAB         5.5470    0.0180   -4.9050 f         1 XAV     -0.235967
      9 FAC         3.8030    0.8070   -5.9230 f         1 XAV     -0.235967
     10 FAD         4.0490   -1.3340   -5.6950 f         1 XAV     -0.235967
     11 CAE         1.4210    0.3800   -2.4500 ca        1 XAV     -0.093000
     12 CAF         3.3740   -0.4990   -1.3080 ca        1 XAV     -0.093000
     13 CAG         2.1150    0.3530   -3.6580 ca        1 XAV     -0.093000
     14 CAH         4.0660   -0.5260   -2.5180 ca        1 XAV     -0.093000
     15 CAI         1.8280   -0.1370    4.6590 c3        1 XAV     -0.014300
     16 CAJ         2.0100    0.8730    3.5530 c3        1 XAV     -0.134700
     17 CAK        -0.7750    0.1100    3.6690 c3        1 XAV      0.052000
     18 SAN         0.1440   -0.5140    5.0510 ss        1 XAV     -0.294200
     19 CAP         2.0490   -0.0460   -1.2730 cp        1 XAV     -0.111500
     20 CAQ         3.4350   -0.1010   -3.6880 ca        1 XAV     -0.153300
     21 CAU         4.1870   -0.1480   -5.0130 c3        1 XAV      0.686200
     22 HO6        -2.2720   -1.0500    0.3710 ho        1 XAV      0.450000
     23 HAE         0.3790    0.7380   -2.4300 ha        1 XAV      0.157500
     24 HAF         3.8770   -0.8310   -0.3870 ha        1 XAV      0.157500
     25 HAG         1.6290    0.6920   -4.5860 ha        1 XAV      0.155000
     26 HAH         5.1100   -0.8770   -2.5520 ha        1 XAV      0.155000
     27 HAI         2.2910    0.2520    5.6010 h1        1 XAV      0.079200
     28 HAIA        2.3460   -1.0920    4.3920 h1        1 XAV      0.079200
     29 HAJ         3.1080    1.0330    3.3740 hc        1 XAV      0.080200
     30 HAJA        1.5710    1.8630    3.8560 hc        1 XAV      0.080200
     31 HAK        -1.7140   -0.5010    3.6270 h1        1 XAV      0.092200
     32 HAKA       -1.0670    1.1720    3.8810 h1        1 XAV      0.092200
@<TRIPOS>BOND
     1    1    2 ar  
     2    1    6 ar  
     3    2    3 ar  
     4    2   19 1   
     5    3    4 ar  
     6    4    5 ar  
     7    4   16 1   
     8    5    6 ar  
     9    5   17 1   
    10    6    7 1   
    11    7   22 1   
    12    8   21 1   
    13    9   21 1   
    14   10   21 1   
    15   11   13 ar  
    16   11   19 ar  
    17   11   23 1   
    18   12   14 ar  
    19   12   19 ar  
    20   12   24 1   
    21   13   20 ar  
    22   13   25 1   
    23   14   20 ar  
    24   14   26 1   
    25   15   16 1   
    26   15   18 1   
    27   15   27 1   
    28   15   28 1   
    29   16   29 1   
    30   16   30 1   
    31   17   18 1   
    32   17   31 1   
    33   17   32 1   
    34   20   21 1   
@<TRIPOS>SUBSTRUCTURE
     1 XAV         1 TEMP              0 ****  ****    0 ROOT
