@<TRIPOS>MOLECULE
molecule
   32    34     1     0     0
SMALL
bcc


@<TRIPOS>ATOM
      1 N1           0.0000     0.0000     0.0000 nb         1 XAV      -0.798000
      2 C2           1.3260     0.0000     0.0000 cp         1 XAV       0.772500
      3 N3           2.0100     0.0000     1.1270 nb         1 XAV      -0.761000
      4 C4           1.4110    -0.0010     2.3260 ca         1 XAV       0.496600
      5 C5           0.0440     0.0180     2.3630 ca         1 XAV      -0.332900
      6 C6          -0.6600     0.0100     1.1450 ca         1 XAV       0.684600
      7 O6          -2.0140     0.0100     1.1470 oh         1 XAV      -0.609300
      8 FAB          4.0180     1.1870    -5.6380 f          1 XAV      -0.224633
      9 FAC          3.6590    -1.0070    -5.8080 f          1 XAV      -0.224633
     10 FAD          5.4840    -0.2520    -4.7730 f          1 XAV      -0.224633
     11 CAE          1.3460     0.0010    -2.4940 ca         1 XAV      -0.090000
     12 CAF          3.4470     0.0020    -1.3110 ca         1 XAV      -0.090000
     13 CAG          2.0270     0.0020    -3.6940 ca         1 XAV      -0.096500
     14 CAH          4.1180     0.0040    -2.5170 ca         1 XAV      -0.096500
     15 CAI          1.7090     0.4460     4.7940 c3         1 XAV       0.009700
     16 CAJ          2.3430    -0.0500     3.5020 c3         1 XAV      -0.127700
     17 CAK         -0.8030     0.0700     3.6080 c3         1 XAV       0.069000
     18 SAN          0.1590    -0.4750     5.0460 ss         1 XAV      -0.318200
     19 CAP          2.0530     0.0010    -1.2930 cp         1 XAV      -0.118500
     20 CAQ          3.4110     0.0040    -3.7050 ca         1 XAV      -0.177300
     21 CAU          4.1610    -0.0170    -5.0120 c3         1 XAV       0.695200
     22 HO6         -2.3290     0.6360     0.5150 ho         1 XAV       0.445000
     23 HAE          0.2620     0.0000    -2.4860 ha         1 XAV       0.161000
     24 HAF          4.0030     0.0020    -0.3820 ha         1 XAV       0.161000
     25 HAG          1.4790     0.0030    -4.6280 ha         1 XAV       0.150500
     26 HAH          5.2010     0.0050    -2.5340 ha         1 XAV       0.150500
     27 HAI          2.2820     0.0500     5.6250 h1         1 XAV       0.080200
     28 HAIA         1.7210     1.5290     4.7820 h1         1 XAV       0.080200
     29 HAJ          3.1180     0.6850     3.3230 hc         1 XAV       0.079200
     30 HAJA         2.7620    -1.0480     3.5340 hc         1 XAV       0.079200
     31 HAK         -1.5070    -0.7520     3.5610 h1         1 XAV       0.088200
     32 HAKA        -1.3630     0.9970     3.5850 h1         1 XAV       0.088200
@<TRIPOS>BOND
     1     1     2 ar
     2     1     6 ar
     3     2     3 ar
     4     2    19 1
     5     3     4 ar
     6     4     5 ar
     7     4    16 1
     8     5     6 ar
     9     5    17 1
    10     6     7 1
    11     8    21 1
    12     9    21 1
    13    10    21 1
    14    11    13 ar
    15    11    19 ar
    16    12    14 ar
    17    12    19 ar
    18    13    20 ar
    19    14    20 ar
    20    15    16 1
    21    15    18 1
    22    17    18 1
    23    20    21 1
    24     7    22 1
    25    11    23 1
    26    12    24 1
    27    13    25 1
    28    14    26 1
    29    15    27 1
    30    15    28 1
    31    16    29 1
    32    16    30 1
    33    17    31 1
    34    17    32 1
@<TRIPOS>SUBSTRUCTURE
     1 XAV         1 TEMP              0 ****  ****    0 ROOT
