@<TRIPOS>MOLECULE
XAZ
   22    23     1     0     0
SMALL
bcc


@<TRIPOS>ATOM
      1 C1           0.0000     0.0000     0.0000 c3         1 XAZ      -0.038400
      2 C2           1.5070     0.0000     0.0000 cc         1 XAZ       0.389600
      3 C3           2.2060     0.0000     1.2160 cc         1 XAZ      -0.260300
      4 C4           3.5610    -0.0000     1.2050 cd         1 XAZ      -0.145600
      5 C5           4.3340     0.0000     2.5000 c3         1 XAZ       0.068200
      6 N6           4.2170    -0.0010     0.0090 na         1 XAZ       0.547200
      7 N7           5.5770    -0.0010    -0.3220 nc         1 XAZ      -0.757100
      8 C8           5.6940    -0.0010    -1.6350 cd         1 XAZ       0.539500
      9 N9           6.8980    -0.0030    -2.3450 nv         1 XAZ      -0.581800
     10 C10          4.4200    -0.0020    -2.2000 cd         1 XAZ      -0.364600
     11 C11          3.5010    -0.0010    -1.1610 cd         1 XAZ       0.193500
     12 N12          2.1600    -0.0060    -1.1390 nd         1 XAZ      -0.544000
     13 H11C        -0.3610     0.0390    -1.0210 hc         1 XAZ       0.017700
     14 H12C        -0.3610     0.8650     0.5440 hc         1 XAZ       0.017700
     15 H13C        -0.3610    -0.9030     0.4770 hc         1 XAZ       0.017700
     16 H3           1.6710     0.1380     2.1480 ha         1 XAZ       0.134000
     17 H51C         5.1220    -0.7410     2.4500 hc         1 XAZ       0.023033
     18 H52C         4.7680     0.9790     2.6610 hc         1 XAZ       0.023033
     19 H53C         3.6660    -0.2380     3.3190 hc         1 XAZ       0.023033
     20 H91N         7.3370     0.8630    -2.5870 hn         1 XAZ       0.274800
     21 H92N         7.3370    -0.8700    -2.5840 hn         1 XAZ       0.274800
     22 H10          4.1900    -0.0020    -3.2590 ha         1 XAZ       0.149000
@<TRIPOS>BOND
     1     1     2 1   
     2     1    13 1   
     3     1    14 1   
     4     1    15 1   
     5     2     3 1   
     6     2    12 2   
     7     3     4 2   
     8     3    16 1   
     9     4     5 1   
    10     4     6 1   
    11     5    17 1   
    12     5    18 1   
    13     5    19 1   
    14     6     7 1   
    15     6    11 1   
    16     7     8 2   
    17     8     9 1   
    18     8    10 1   
    19     9    20 1   
    20     9    21 1   
    21    10    11 2   
    22    10    22 1   
    23    11    12 1   
@<TRIPOS>SUBSTRUCTURE
     1 XAZ         1 TEMP              0 ****  ****    0 ROOT
