@<TRIPOS>MOLECULE
XBB
   18    18     1     0     0
SMALL
bcc


@<TRIPOS>ATOM
      1 C2           0.0000     0.0000     0.0000 c2         1 XBB       0.449200
      2 N1           1.2620     0.0000     0.0000 n2         1 XBB      -0.502900
      3 C3          -0.8490     0.0130     1.2350 c3         1 XBB      -0.098700
      4 C6           2.1000     0.0000     1.1900 c3         1 XBB       0.164800
      5 C5           1.2930     0.4350     2.4140 c3         1 XBB      -0.133500
      6 C4          -0.0080    -0.3790     2.4510 c3         1 XBB      -0.030400
      7 N7           2.0700     0.1830     3.6360 nz         1 XBB       0.087400
      8 HC2         -0.4900     0.1300    -0.9570 h4         1 XBB       0.012800
      9 HC31        -1.2510     1.0080     1.3830 hc         1 XBB       0.056700
     10 HC32        -1.6620    -0.6940     1.1190 hc         1 XBB       0.056700
     11 HC61         2.4850    -0.9990     1.3540 h1         1 XBB       0.042200
     12 HC62         2.9240     0.6870     1.0450 h1         1 XBB       0.042200
     13 HC5          1.0580     1.4900     2.3370 hx         1 XBB       0.101700
     14 HC41         0.2230    -1.4370     2.4100 hc         1 XBB       0.039700
     15 HC42        -0.5530    -0.1530     3.3600 hc         1 XBB       0.039700
     16 HN71         1.5580     0.5110     4.4300 hn         1 XBB       0.224467
     17 HN72         2.9450     0.6650     3.5800 hn         1 XBB       0.224467
     18 H73          2.2350    -0.8000     3.7290 hn         1 XBB       0.224467
@<TRIPOS>BOND
     1     1     2 2   
     2     1     3 1   
     3     1     8 1   
     4     2     4 1   
     5     3     6 1   
     6     3     9 1   
     7     3    10 1   
     8     4     5 1   
     9     4    11 1   
    10     4    12 1   
    11     5     6 1   
    12     5     7 1   
    13     5    13 1   
    14     6    14 1   
    15     6    15 1   
    16     7    16 1   
    17     7    17 1   
    18     7    18 1   
@<TRIPOS>SUBSTRUCTURE
     1 XBB         1 TEMP              0 ****  ****    0 ROOT
