@<TRIPOS>MOLECULE
XBG
   23    24     1     0     0
SMALL
bcc


@<TRIPOS>ATOM
      1 NBB          0.0000     0.0000     0.0000 n7         1 XBG      -0.537200
      2 CAZ          1.4850     0.0000     0.0000 c3         1 XBG       0.014500
      3 CAT          2.0160    -1.2400    -0.6720 c          1 XBG       0.980600
      4 OAC          1.3010    -2.2030    -0.8140 o          1 XBG      -0.889800
      5 CAN          0.2240     0.2790     3.4120 c3         1 XBG      -0.021400
      6 OAF          3.2840    -1.2750    -1.1110 o          1 XBG      -0.889800
      7 CAQ          1.8390     0.0000     1.5080 c3         1 XBG      -0.004400
      8 CAY          0.7600     0.9210     2.1180 c3         1 XBG      -0.062700
      9 CBA         -0.4070     0.9000     1.1030 c3         1 XBG       0.110500
     10 CAL         -1.3080     0.4950     3.3360 c3         1 XBG      -0.029400
     11 CAO         -1.6100     0.2700     1.8350 c3         1 XBG      -0.024400
     12 HBB         -0.3340     0.3660    -0.8700 hn         1 XBG       0.235800
     13 HBA         -0.6370     1.8950     0.7410 h1         1 XBG      -0.007300
     14 HAZ          1.8650     0.8940    -0.4790 h1         1 XBG       0.002700
     15 HAO1        -1.6710    -0.7890     1.6180 hc         1 XBG       0.019200
     16 HAO2        -2.5270     0.7740     1.5560 hc         1 XBG       0.019200
     17 HAY          1.1310     1.9240     2.2860 hc         1 XBG       0.014700
     18 HAL1        -1.5660     1.5040     3.6320 hc         1 XBG      -0.000300
     19 HAL2        -1.8270    -0.2360     3.9440 hc         1 XBG      -0.000300
     20 HAN1         0.6340     0.7810     4.2800 hc         1 XBG       0.013200
     21 HAN2         0.4560    -0.7800     3.4330 hc         1 XBG       0.013200
     22 HAQ1         2.8280     0.4140     1.6680 hc         1 XBG       0.023200
     23 HAQ2         1.7640    -1.0000     1.9180 hc         1 XBG       0.023200
@<TRIPOS>BOND
     1     1     2 1   
     2     1     9 1   
     3     1    12 1   
     4     2     3 1   
     5     2     7 1   
     6     2    14 1   
     7     3     4 1   
     8     3     6 1   
     9     5     8 1   
    10     5    10 1   
    11     5    20 1   
    12     5    21 1   
    13     7     8 1   
    14     7    22 1   
    15     7    23 1   
    16     8     9 1   
    17     8    17 1   
    18     9    11 1   
    19     9    13 1   
    20    10    11 1   
    21    10    18 1   
    22    10    19 1   
    23    11    15 1   
    24    11    16 1   
@<TRIPOS>SUBSTRUCTURE
     1 XBG         1 TEMP              0 ****  ****    0 ROOT
