@<TRIPOS>MOLECULE
XBJ
   59    62     1     0     0
SMALL
bcc


@<TRIPOS>ATOM
      1 C01          0.0000     0.0000     0.0000 ca         1 XBJ      -0.161000
      2 C02          1.3650     0.0000     0.0000 ca         1 XBJ       0.115100
      3 C03          2.0830     0.0000     1.2050 ca         1 XBJ       0.163100
      4 C04          1.4240    -0.0000     2.4150 ca         1 XBJ      -0.261300
      5 C05          0.0230    -0.0000     2.4390 ca         1 XBJ       0.453600
      6 N06         -0.6630     0.0000     3.5910 nb         1 XBJ      -0.647000
      7 C07         -1.9830     0.0010     3.5820 cp         1 XBJ       0.711500
      8 N08         -2.6960     0.0020     2.4560 nb         1 XBJ      -0.729000
      9 C09         -2.1090     0.0020     1.2690 ca         1 XBJ       0.566200
     10 C10         -0.6940     0.0010     1.2170 ca         1 XBJ      -0.313600
     11 N11         -2.8600     0.0020     0.1100 nu         1 XBJ      -0.462900
     12 C12         -4.3230     0.0020     0.1850 c3         1 XBJ       0.126500
     13 C13         -4.9250     0.6130    -1.0960 c3         1 XBJ      -0.058700
     14 C14         -5.7730    -0.5160    -1.7200 c3         1 XBJ       0.130800
     15 N15         -5.1790    -1.7680    -1.1850 n7         1 XBJ      -0.585200
     16 C16         -4.8570    -1.4450     0.2290 c3         1 XBJ       0.120800
     17 C17         -5.8090     1.8130    -0.7480 c3         1 XBJ       0.172800
     18 C18         -6.4940     2.3260    -2.0170 c3         1 XBJ      -0.043600
     19 C19         -6.8710     1.3850     0.2670 c3         1 XBJ      -0.043600
     20 O20         -5.0040     2.8510    -0.1880 oh         1 XBJ      -0.585800
     21 C21         -2.7010     0.0010     4.8780 cp         1 XBJ      -0.170500
     22 C22         -1.9840    -0.0010     6.0790 ca         1 XBJ       0.183100
     23 C23         -2.6640    -0.0000     7.2870 ca         1 XBJ      -0.203000
     24 C24         -4.0450     0.0010     7.3040 ca         1 XBJ      -0.075000
     25 C25         -4.7600     0.0020     6.1160 ca         1 XBJ       0.041900
     26 C26         -4.0950     0.0080     4.9050 ca         1 XBJ      -0.058000
     27 F27         -6.1110     0.0030     6.1430 f          1 XBJ      -0.132900
     28 O28         -0.6260    -0.0020     6.0620 oh         1 XBJ      -0.425100
     29 O29          3.4400     0.0000     1.1790 os         1 XBJ      -0.292900
     30 C30          4.1140    -0.0010     2.4390 c3         1 XBJ       0.239700
     31 O31          2.0380    -0.0000    -1.1820 os         1 XBJ      -0.292900
     32 C32          1.2510    -0.0010    -2.3760 c3         1 XBJ       0.240700
     33 H01         -0.5440     0.0000    -0.9370 ha         1 XBJ       0.124000
     34 H04          1.9850    -0.0000     3.3410 ha         1 XBJ       0.142000
     35 H11         -2.4040     0.0070    -0.7810 hn         1 XBJ       0.300800
     36 H12         -4.6600     0.5510     1.0560 h1         1 XBJ       0.081700
     37 H13         -4.1340     0.9070    -1.7770 hc         1 XBJ       0.046700
     38 H161        -4.0950    -2.1170     0.6040 h1         1 XBJ       0.024200
     39 H162        -5.7510    -1.4980     0.8400 h1         1 XBJ       0.024200
     40 H141        -6.8070    -0.4260    -1.4080 h1         1 XBJ       0.021200
     41 H142        -5.6940    -0.4930    -2.8000 h1         1 XBJ       0.021200
     42 H15         -5.8620    -2.5000    -1.2130 hn         1 XBJ       0.255800
     43 H181        -5.7580     2.4400    -2.8040 hc         1 XBJ       0.017200
     44 H182        -6.9570     3.2850    -1.8150 hc         1 XBJ       0.017200
     45 H183        -7.2510     1.6180    -2.3310 hc         1 XBJ       0.017200
     46 H191        -6.4370     1.3720     1.2590 hc         1 XBJ       0.017200
     47 H192        -7.6960     2.0870     0.2440 hc         1 XBJ       0.017200
     48 H193        -7.2320     0.3950     0.0170 hc         1 XBJ       0.017200
     49 H20         -5.4350     3.6820    -0.3070 ho         1 XBJ       0.397000
     50 H26         -4.6560     0.0080     3.9790 ha         1 XBJ       0.136000
     51 H23         -2.1110    -0.0010     8.2190 ha         1 XBJ       0.113000
     52 H28         -0.3000    -0.0250     6.9460 ho         1 XBJ       0.385000
     53 H24         -4.5720    -0.0010     8.2500 ha         1 XBJ       0.113000
     54 H301         3.8300     0.8810     3.0010 h1         1 XBJ       0.000367
     55 H302         3.8370    -0.8880     2.9960 h1         1 XBJ       0.000367
     56 H303         5.1850     0.0040     2.2770 h1         1 XBJ       0.000367
     57 H321         0.6230    -0.8830    -2.3940 h1         1 XBJ      -0.002967
     58 H322         0.6290     0.8860    -2.3990 h1         1 XBJ      -0.002967
     59 H323         1.9060    -0.0050    -3.2390 h1         1 XBJ      -0.002967
@<TRIPOS>BOND
     1     1     2 ar  
     2     1    10 ar  
     3     1    33 1   
     4     2     3 ar  
     5     2    31 1   
     6     3     4 ar  
     7     3    29 1   
     8     4     5 ar  
     9     4    34 1   
    10     5     6 ar  
    11     5    10 ar  
    12     6     7 ar  
    13     7     8 ar  
    14     7    21 1   
    15     8     9 ar  
    16     9    10 ar  
    17     9    11 1   
    18    11    12 1   
    19    11    35 1   
    20    12    13 1   
    21    12    16 1   
    22    12    36 1   
    23    13    14 1   
    24    13    17 1   
    25    13    37 1   
    26    14    15 1   
    27    14    40 1   
    28    14    41 1   
    29    15    16 1   
    30    15    42 1   
    31    16    38 1   
    32    16    39 1   
    33    17    18 1   
    34    17    19 1   
    35    17    20 1   
    36    18    43 1   
    37    18    44 1   
    38    18    45 1   
    39    19    46 1   
    40    19    47 1   
    41    19    48 1   
    42    20    49 1   
    43    21    22 ar  
    44    21    26 ar  
    45    22    23 ar  
    46    22    28 1   
    47    23    24 ar  
    48    23    51 1   
    49    24    25 ar  
    50    24    53 1   
    51    25    26 ar  
    52    25    27 1   
    53    26    50 1   
    54    28    52 1   
    55    29    30 1   
    56    30    54 1   
    57    30    55 1   
    58    30    56 1   
    59    31    32 1   
    60    32    57 1   
    61    32    58 1   
    62    32    59 1   
@<TRIPOS>SUBSTRUCTURE
     1 XBJ         1 TEMP              0 ****  ****    0 ROOT
