@<TRIPOS>MOLECULE
XBL
   41    45     1     0     0
SMALL
bcc


@<TRIPOS>ATOM
      1 C            0.0000     0.0000     0.0000 c3         1 XBL       0.035600
      2 C1           1.5070     0.0000     0.0000 cc         1 XBL       0.147800
      3 N2           2.3060     0.0000     1.0940 na         1 XBL       0.582300
      4 N3           2.0420     0.0010     2.4630 nc         1 XBL      -0.700800
      5 C3           2.9900     0.0010     3.3610 cd         1 XBL       0.602200
      6 C13          4.4000    -0.0000     2.9500 ca         1 XBL      -0.191300
      7 C18          5.4360    -0.0000     3.8840 ca         1 XBL      -0.108000
      8 C17          6.7430    -0.0010     3.4510 ca         1 XBL      -0.103000
      9 C16          7.0410    -0.0020     2.0950 ca         1 XBL      -0.073000
     10 C15          6.0340    -0.0020     1.1540 ca         1 XBL      -0.072000
     11 C14          4.7040    -0.0010     1.5710 ca         1 XBL       0.061000
     12 C2           3.5900    -0.0010     0.6160 cc         1 XBL      -0.321300
     13 N1           3.5160    -0.0030    -0.6990 nd         1 XBL      -0.043000
     14 N            2.2800    -0.0080    -1.0560 nd         1 XBL      -0.354700
     15 N4           2.6640     0.0030     4.7090 nh         1 XBL      -0.473300
     16 C8           3.5070    -0.6760     5.6990 c3         1 XBL       0.226100
     17 C7           2.6400    -1.4580     6.6540 ca         1 XBL      -0.113300
     18 C9           3.2640    -2.3580     7.5060 ca         1 XBL      -0.093000
     19 C10          2.5260    -3.0950     8.4100 ca         1 XBL      -0.099000
     20 C11          1.1540    -2.9340     8.4660 ca         1 XBL      -0.092000
     21 C12          0.5320    -2.0430     7.6170 ca         1 XBL      -0.099000
     22 C6           1.2730    -1.3040     6.7020 ca         1 XBL      -0.068300
     23 C5           0.5230    -0.3720     5.7870 c3         1 XBL       0.012900
     24 C4           1.4610     0.6920     5.2060 c3         1 XBL       0.179800
     25 HC1         -0.3610    -0.8790     0.5200 hc         1 XBL       0.015033
     26 HC2         -0.3610     0.8900     0.5020 hc         1 XBL       0.015033
     27 HC3         -0.3610    -0.0110    -1.0210 hc         1 XBL       0.015033
     28 H18          5.2140     0.0010     4.9440 ha         1 XBL       0.134000
     29 H17          7.5470    -0.0010     4.1760 ha         1 XBL       0.106000
     30 H16          8.0760    -0.0030     1.7730 ha         1 XBL       0.108000
     31 H15          6.2750    -0.0030     0.0980 ha         1 XBL       0.133000
     32 H81C         4.1650    -1.3650     5.1820 h1         1 XBL       0.038700
     33 H82C         4.0560     0.0710     6.2590 h1         1 XBL       0.038700
     34 H41C         0.9700     1.2060     4.3880 h1         1 XBL       0.032700
     35 H42C         1.7370     1.3990     5.9790 h1         1 XBL       0.032700
     36 H9           4.3390    -2.4830     7.4610 ha         1 XBL       0.104000
     37 H10          3.0200    -3.7940     9.0740 ha         1 XBL       0.106000
     38 H11          0.5680    -3.5090     9.1730 ha         1 XBL       0.105000
     39 H12         -0.5430    -1.9180     7.6630 ha         1 XBL       0.108000
     40 H51C        -0.2640     0.1170     6.3470 hc         1 XBL       0.032700
     41 H52C         0.0890    -0.9430     4.9760 hc         1 XBL       0.032700
@<TRIPOS>BOND
     1     1     2 1   
     2     1    25 1   
     3     1    26 1   
     4     1    27 1   
     5     2     3 1   
     6     2    14 2   
     7     3     4 1   
     8     3    12 1   
     9     4     5 2   
    10     5     6 1   
    11     5    15 1   
    12     6     7 ar  
    13     6    11 ar  
    14     7     8 ar  
    15     7    28 1   
    16     8     9 ar  
    17     8    29 1   
    18     9    10 ar  
    19     9    30 1   
    20    10    11 ar  
    21    10    31 1   
    22    11    12 1   
    23    12    13 2   
    24    13    14 1   
    25    15    16 1   
    26    15    24 1   
    27    16    17 1   
    28    16    32 1   
    29    16    33 1   
    30    17    18 ar  
    31    17    22 ar  
    32    18    19 ar  
    33    18    36 1   
    34    19    20 ar  
    35    19    37 1   
    36    20    21 ar  
    37    20    38 1   
    38    21    22 ar  
    39    21    39 1   
    40    22    23 1   
    41    23    24 1   
    42    23    40 1   
    43    23    41 1   
    44    24    34 1   
    45    24    35 1   
@<TRIPOS>SUBSTRUCTURE
     1 XBL         1 TEMP              0 ****  ****    0 ROOT
