@<TRIPOS>MOLECULE
molecule
   41    45     1     0     0
SMALL
bcc


@<TRIPOS>ATOM
      1 C            0.0000     0.0000     0.0000 c3         1 XBL      -0.081400
      2 C1           1.5070     0.0000     0.0000 cc         1 XBL       0.357800
      3 N2           2.3060     0.0000     1.0940 na         1 XBL       0.096300
      4 N3           2.0420     0.0010     2.4630 nc         1 XBL      -0.567800
      5 C3           2.9900     0.0010     3.3610 cd         1 XBL       0.697200
      6 C13          4.4000    -0.0000     2.9500 ca         1 XBL      -0.172300
      7 C18          5.4360    -0.0000     3.8840 ca         1 XBL      -0.116000
      8 C17          6.7430    -0.0010     3.4510 ca         1 XBL      -0.130000
      9 C16          7.0410    -0.0020     2.0950 ca         1 XBL      -0.107000
     10 C15          6.0340    -0.0020     1.1540 ca         1 XBL      -0.095000
     11 C14          4.7040    -0.0010     1.5710 ca         1 XBL       0.041000
     12 C2           3.5900    -0.0010     0.6160 cc         1 XBL      -0.128300
     13 N1           3.5160    -0.0030    -0.6990 nd         1 XBL      -0.069000
     14 N            2.2800    -0.0080    -1.0560 nd         1 XBL      -0.376700
     15 N4           2.6640     0.0030     4.7090 nh         1 XBL      -0.832300
     16 C8           3.5070    -0.6760     5.6990 c3         1 XBL       0.289100
     17 C7           2.6400    -1.4580     6.6540 ca         1 XBL      -0.107300
     18 C9           3.2640    -2.3580     7.5060 ca         1 XBL      -0.123000
     19 C10          2.5260    -3.0950     8.4100 ca         1 XBL      -0.126000
     20 C11          1.1540    -2.9340     8.4660 ca         1 XBL      -0.120000
     21 C12          0.5320    -2.0430     7.6170 ca         1 XBL      -0.127000
     22 C6           1.2730    -1.3040     6.7020 ca         1 XBL      -0.060300
     23 C5           0.5230    -0.3720     5.7870 c3         1 XBL      -0.057100
     24 C4           1.4610     0.6920     5.2060 c3         1 XBL       0.244800
     25 HC1         -0.3610    -0.8790     0.5200 hc         1 XBL       0.059367
     26 HC2         -0.3610     0.8900     0.5020 hc         1 XBL       0.059367
     27 HC3         -0.3610    -0.0110    -1.0210 hc         1 XBL       0.059367
     28 H18          5.2140     0.0010     4.9440 ha         1 XBL       0.149000
     29 H17          7.5470    -0.0010     4.1760 ha         1 XBL       0.135000
     30 H16          8.0760    -0.0030     1.7730 ha         1 XBL       0.139000
     31 H15          6.2750    -0.0030     0.0980 ha         1 XBL       0.163000
     32 H81C         4.1650    -1.3650     5.1820 h1         1 XBL       0.063200
     33 H82C         4.0560     0.0710     6.2590 h1         1 XBL       0.063200
     34 H41C         0.9700     1.2060     4.3880 h1         1 XBL       0.061700
     35 H42C         1.7370     1.3990     5.9790 h1         1 XBL       0.061700
     36 H9           4.3390    -2.4830     7.4610 ha         1 XBL       0.128000
     37 H10          3.0200    -3.7940     9.0740 ha         1 XBL       0.133000
     38 H11          0.5680    -3.5090     9.1730 ha         1 XBL       0.133000
     39 H12         -0.5430    -1.9180     7.6630 ha         1 XBL       0.133000
     40 H51C        -0.2640     0.1170     6.3470 hc         1 XBL       0.063700
     41 H52C         0.0890    -0.9430     4.9760 hc         1 XBL       0.063700
@<TRIPOS>BOND
     1     1     2 1
     2     2     3 1
     3     2    14 2
     4     3     4 1
     5     3    12 1
     6     4     5 2
     7     5     6 1
     8     5    15 1
     9     6     7 ar
    10     6    11 ar
    11     7     8 ar
    12     8     9 ar
    13     9    10 ar
    14    10    11 ar
    15    11    12 1
    16    12    13 2
    17    13    14 1
    18    15    16 1
    19    15    24 1
    20    16    17 1
    21    17    18 ar
    22    17    22 ar
    23    18    19 ar
    24    19    20 ar
    25    20    21 ar
    26    21    22 ar
    27    22    23 1
    28    23    24 1
    29     1    25 1
    30     1    26 1
    31     1    27 1
    32     7    28 1
    33     8    29 1
    34     9    30 1
    35    10    31 1
    36    16    32 1
    37    16    33 1
    38    24    34 1
    39    24    35 1
    40    18    36 1
    41    19    37 1
    42    20    38 1
    43    21    39 1
    44    23    40 1
    45    23    41 1
@<TRIPOS>SUBSTRUCTURE
     1 XBL         1 TEMP              0 ****  ****    0 ROOT
