@<TRIPOS>MOLECULE
molecule
   43    46     1     0     0
SMALL
bcc


@<TRIPOS>ATOM
      1 C1           0.0000     0.0000     0.0000 ca         1 XBR      -0.167000
      2 C2           1.3880     0.0000     0.0000 ca         1 XBR      -0.121000
      3 C3           2.0890     0.0000     1.1850 ca         1 XBR      -0.145000
      4 C4           1.4040     0.0020     2.3950 ca         1 XBR      -0.042200
      5 C5          -0.0050     0.0020     2.3910 ca         1 XBR      -0.090800
      6 C6          -0.6940     0.0020     1.1760 ca         1 XBR      -0.078000
      7 C7          -0.4060     0.0040     3.7920 cc         1 XBR      -0.138400
      8 C8           0.7200     0.0040     4.5350 cd         1 XBR      -0.045300
      9 N9           1.8100     0.0020     3.7130 na         1 XBR      -0.172400
     10 C11          0.7080     0.0090     6.0450 c3         1 XBR       0.285000
     11 N12         -0.6340     0.4130     6.4980 n3         1 XBR      -0.731600
     12 C13         -1.6830    -0.3920     5.8560 c3         1 XBR       0.159800
     13 C14         -1.7950     0.0010     4.3760 c3         1 XBR      -0.003200
     14 C15         -0.7390     0.3440     7.9610 c3         1 XBR       0.167800
     15 C16         -2.0460     1.0010     8.4100 c3         1 XBR      -0.181400
     16 C17         -2.1530     0.9310     9.9110 c          1 XBR       0.890600
     17 O18         -1.2750     0.4090    10.5560 o          1 XBR      -0.852300
     18 O19         -3.2260     1.4480    10.5330 o          1 XBR      -0.852300
     19 C20          1.7330     0.9880     6.5590 ca         1 XBR      -0.076300
     20 C21          2.9620     0.5340     6.9990 ca         1 XBR      -0.098500
     21 C22          3.9020     1.4310     7.4700 ca         1 XBR      -0.128000
     22 C23          3.6120     2.7830     7.5000 ca         1 XBR       0.030400
     23 C24          2.3810     3.2370     7.0590 ca         1 XBR      -0.128000
     24 C25          1.4440     2.3390     6.5840 ca         1 XBR      -0.098500
     25 Cl           4.7930     3.9110     8.0920 cl         1 XBR      -0.132400
     26 H1          -0.5370    -0.0000    -0.9410 ha         1 XBR       0.119000
     27 H2           1.9240    -0.0020    -0.9410 ha         1 XBR       0.119000
     28 H6          -1.7780     0.0020     1.1660 ha         1 XBR       0.127000
     29 H3           3.1730     0.0000     1.1750 ha         1 XBR       0.118000
     30 H9           2.7620    -0.0010     4.0210 hn         1 XBR       0.294700
     31 H141        -2.4100    -0.7200     3.8520 hc         1 XBR       0.048200
     32 H142        -2.2280     0.9900     4.2920 hc         1 XBR       0.048200
     33 H11          0.9300    -0.9850     6.4130 h1         1 XBR       0.043700
     34 H131        -2.6300    -0.2090     6.3490 h1         1 XBR       0.045200
     35 H132        -1.4280    -1.4420     5.9310 h1         1 XBR       0.045200
     36 H151         0.0990     0.8650     8.4090 h1         1 XBR       0.047200
     37 H152        -0.7290    -0.6920     8.2760 h1         1 XBR       0.047200
     38 H161        -2.0550     2.0370     8.0950 hc         1 XBR       0.035700
     39 H162        -2.8840     0.4800     7.9630 hc         1 XBR       0.035700
     40 H21          3.1880    -0.5250     6.9750 ha         1 XBR       0.149500
     41 H25          0.4810     2.6940     6.2380 ha         1 XBR       0.149500
     42 H22          4.8650     1.0760     7.8150 ha         1 XBR       0.138500
     43 H24          2.1550     4.2970     7.0800 ha         1 XBR       0.138500
@<TRIPOS>BOND
     1     1     2 ar
     2     1     6 ar
     3     2     3 ar
     4     3     4 ar
     5     4     5 ar
     6     4     9 1
     7     5     6 ar
     8     5     7 1
     9     7     8 2
    10     7    13 1
    11     8     9 1
    12     8    10 1
    13    10    11 1
    14    10    19 1
    15    11    12 1
    16    11    14 1
    17    12    13 1
    18    14    15 1
    19    15    16 1
    20    16    17 1
    21    16    18 1
    22    19    20 ar
    23    19    24 ar
    24    20    21 ar
    25    21    22 ar
    26    22    23 ar
    27    22    25 1
    28    23    24 ar
    29     1    26 1
    30     2    27 1
    31     6    28 1
    32     3    29 1
    33     9    30 1
    34    13    31 1
    35    13    32 1
    36    10    33 1
    37    12    34 1
    38    12    35 1
    39    14    36 1
    40    14    37 1
    41    15    38 1
    42    15    39 1
    43    20    40 1
    44    24    41 1
    45    21    42 1
    46    23    43 1
@<TRIPOS>SUBSTRUCTURE
     1 XBR         1 TEMP              0 ****  ****    0 ROOT
