@<TRIPOS>MOLECULE
XBT
   22    22     1     0     0
SMALL
bcc


@<TRIPOS>ATOM
      1 S1           0.0000     0.0000     0.0000 ss         1 XBT      -0.386300
      2 C2           1.7680     0.0000     0.0000 c2         1 XBT       0.457200
      3 N3           2.2060     0.0000     1.1970 n2         1 XBT      -0.525900
      4 C4           1.2800    -0.0010     2.3070 c3         1 XBT       0.145800
      5 C5          -0.1770    -0.0020     1.8140 c3         1 XBT       0.061700
      6 C6           2.6320     0.0010    -1.2360 c3         1 XBT      -0.049000
      7 C7           3.9960     0.6110    -0.9040 c3         1 XBT      -0.025400
      8 C8           4.8270     0.7260    -2.1830 c3         1 XBT       0.000900
      9 C9           2.8220    -1.4360    -1.7260 c3         1 XBT      -0.001100
     10 H4           1.4500    -0.8860     2.9090 h1         1 XBT       0.037700
     11 H5          -0.6930     0.8910     2.1470 h1         1 XBT       0.053700
     12 H6           2.1530     0.5870    -2.0110 hc         1 XBT       0.042700
     13 H7           4.5120    -0.0240    -0.1930 hc         1 XBT       0.025700
     14 H7A          3.8560     1.5950    -0.4740 hc         1 XBT       0.025700
     15 H8           4.1800     0.9890    -3.0110 hc         1 XBT       0.002700
     16 H8A          5.3080    -0.2230    -2.3880 hc         1 XBT       0.002700
     17 H8B          5.5800     1.4940    -2.0560 hc         1 XBT       0.002700
     18 H9           2.4600    -1.5220    -2.7430 hc         1 XBT       0.011700
     19 H9A          2.2670    -2.1120    -1.0870 hc         1 XBT       0.011700
     20 H9B          3.8740    -1.6920    -1.6940 hc         1 XBT       0.011700
     21 H12          1.4490     0.8830     2.9100 h1         1 XBT       0.037700
     22 H13         -0.6920    -0.8950     2.1460 h1         1 XBT       0.053700
@<TRIPOS>BOND
     1     1     2 1   
     2     1     5 1   
     3     2     3 2   
     4     2     6 1   
     5     3     4 1   
     6     4     5 1   
     7     4    10 1   
     8     4    21 1   
     9     5    11 1   
    10     5    22 1   
    11     6     7 1   
    12     6     9 1   
    13     6    12 1   
    14     7     8 1   
    15     7    13 1   
    16     7    14 1   
    17     8    15 1   
    18     8    16 1   
    19     8    17 1   
    20     9    18 1   
    21     9    19 1   
    22     9    20 1   
@<TRIPOS>SUBSTRUCTURE
     1 XBT         1 TEMP              0 ****  ****    0 ROOT
