@<TRIPOS>MOLECULE
molecule
   42    44     1     0     0
SMALL
bcc


@<TRIPOS>ATOM
      1 CAI          0.0000     0.0000     0.0000 ca         1 XBU      -0.092000
      2 CAJ          1.3820     0.0000     0.0000 ca         1 XBU      -0.160500
      3 CAK          2.0740     0.0000     1.2020 ca         1 XBU       0.112100
      4 OAN          3.4330    -0.0000     1.2040 oh         1 XBU      -0.524100
      5 CAL          1.3770     0.0010     2.4020 ca         1 XBU      -0.160500
      6 CAM         -0.0040     0.0020     2.3970 ca         1 XBU      -0.092000
      7 CAH         -0.6920     0.0010     1.1970 ca         1 XBU      -0.123300
      8 CAF         -2.1990     0.0090     1.1940 c3         1 XBU      -0.013100
      9 CAB         -2.7160    -1.4320     1.1910 c3         1 XBU       0.151000
     10 CAX         -2.0970    -2.2000     0.0520 c          1 XBU       0.646100
     11 OAY         -1.6990    -1.6140    -0.9260 o          1 XBU      -0.531000
     12 OAZ         -1.9860    -3.5360     0.1260 os         1 XBU      -0.412900
     13 CBB         -1.3790    -4.2110    -1.0070 c3         1 XBU       0.137700
     14 OAC         -2.4100    -2.0660     2.4370 os         1 XBU      -0.345900
     15 CAD         -3.5660    -2.4300     3.0230 c          1 XBU       0.703800
     16 OAP         -3.6550    -2.9940     4.0970 o          1 XBU      -0.554500
     17 CAE         -4.6970    -2.0470     2.1790 ce         1 XBU       0.003900
     18 OAO         -6.0090    -2.2620     2.4670 oh         1 XBU      -0.455100
     19 CAA         -4.2220    -1.4420     1.0650 cf         1 XBU      -0.108400
     20 CAQ         -5.0150    -0.9000    -0.0480 ca         1 XBU      -0.052800
     21 CAR         -5.8730     0.1850     0.1640 ca         1 XBU      -0.085500
     22 CAS         -6.6130     0.6880    -0.8830 ca         1 XBU      -0.154000
     23 CAT         -6.5100     0.1200    -2.1470 ca         1 XBU       0.118100
     24 OAW         -7.2430     0.6200    -3.1740 oh         1 XBU      -0.521100
     25 CAU         -5.6590    -0.9580    -2.3620 ca         1 XBU      -0.154000
     26 CAV         -4.9100    -1.4640    -1.3240 ca         1 XBU      -0.085500
     27 H1          -0.5410    -0.0000    -0.9380 ha         1 XBU       0.150500
     28 H2           1.9240    -0.0010    -0.9380 ha         1 XBU       0.141500
     29 H3           3.7480     0.8880     1.2480 ho         1 XBU       0.419000
     30 H4           1.9160     0.0020     3.3420 ha         1 XBU       0.141500
     31 H5          -0.5490     0.0030     3.3330 ha         1 XBU       0.150500
     32 H6          -2.5600     0.5200     2.0790 hc         1 XBU       0.077700
     33 H7          -2.5560     0.5220     0.3100 hc         1 XBU       0.077700
     34 H8          -1.4640    -5.2830    -0.8770 h1         1 XBU       0.053033
     35 H9          -1.8880    -3.9160    -1.9170 h1         1 XBU       0.053033
     36 H10         -0.3330    -3.9360    -1.0730 h1         1 XBU       0.053033
     37 H11         -6.0880    -3.0090     3.0360 ho         1 XBU       0.440000
     38 H12         -5.9540     0.6280     1.1490 ha         1 XBU       0.140000
     39 H13         -7.2780     1.5280    -0.7210 ha         1 XBU       0.145500
     40 H14         -8.0890     0.2050    -3.1880 ho         1 XBU       0.423000
     41 H15         -5.5810    -1.3950    -3.3500 ha         1 XBU       0.145500
     42 H16         -4.2470    -2.3040    -1.4930 ha         1 XBU       0.140000
@<TRIPOS>BOND
     1     4     3 1
     2    13    12 1
     3     3     2 ar
     4     3     5 ar
     5     2     1 ar
     6     5     6 ar
     7    11    10 2
     8    12    10 1
     9    10     9 1
    10     1     7 ar
    11     6     7 ar
    12     7     8 1
    13    14     9 1
    14    14    15 1
    15     9     8 1
    16     9    19 1
    17    15    16 2
    18    15    17 1
    19    19    17 2
    20    19    20 1
    21    26    25 ar
    22    26    20 ar
    23    17    18 1
    24    25    23 ar
    25    20    21 ar
    26    23    24 1
    27    23    22 ar
    28    21    22 ar
    29     1    27 1
    30     2    28 1
    31     4    29 1
    32     5    30 1
    33     6    31 1
    34     8    32 1
    35     8    33 1
    36    13    34 1
    37    13    35 1
    38    13    36 1
    39    18    37 1
    40    21    38 1
    41    22    39 1
    42    24    40 1
    43    25    41 1
    44    26    42 1
@<TRIPOS>SUBSTRUCTURE
     1 XBU         1 TEMP              0 ****  ****    0 ROOT
