@<TRIPOS>MOLECULE
molecule
   57    60     1     0     0
SMALL
bcc


@<TRIPOS>ATOM
      1 C1           0.0000     0.0000     0.0000 c3         1 XBV      -0.146700
      2 C2           1.5420     0.0000     0.0000 c3         1 XBV      -0.143700
      3 C3           1.9440     0.0000     1.4900 c3         1 XBV       0.149800
      4 N4           0.7720    -0.5800     2.1930 n3         1 XBV      -0.678600
      5 C5          -0.4000     0.0000     1.4910 c3         1 XBV       0.139800
      6 C6          -0.5230    -1.2380    -0.6820 c          1 XBV       0.666100
      7 C7           2.0660     1.2370    -0.6840 c          1 XBV       0.667100
      8 N8           3.3940     1.4350    -0.7940 ns         1 XBV      -0.471100
      9 O9           1.2920     2.0540    -1.1360 o          1 XBV      -0.591100
     10 O10          0.2500    -2.0550    -1.1330 o          1 XBV      -0.528100
     11 N11         -1.8520    -1.4360    -0.7920 ns         1 XBV      -0.550400
     12 C12         -2.3380    -2.5230    -1.5160 ca         1 XBV       0.561200
     13 N13         -1.4940    -3.2990    -2.1770 nb         1 XBV      -0.674000
     14 C14         -3.2550    -4.6540    -2.9420 ca         1 XBV      -0.136900
     15 C15         -4.1720    -3.8660    -2.2580 ca         1 XBV      -0.059000
     16 C16         -1.9110    -4.3390    -2.8760 ca         1 XBV       0.466200
     17 C17         -3.7040    -2.7850    -1.5340 ca         1 XBV      -0.290300
     18 Cl1         -3.7900    -6.0230    -3.8660 cl         1 XBV      -0.102400
     19 C19          3.8820     2.6380    -1.3190 ca         1 XBV       0.030600
     20 C20          3.1990     3.8250    -1.0860 ca         1 XBV      -0.102000
     21 C21          4.8470     5.0200    -2.3560 ca         1 XBV       0.029600
     22 C22          5.5340     3.8350    -2.5850 ca         1 XBV      -0.154000
     23 C23          3.6790     5.0110    -1.6030 ca         1 XBV      -0.091000
     24 C24          5.0550     2.6470    -2.0680 ca         1 XBV       0.105900
     25 N25          5.3340     6.2240    -2.8800 n          1 XBV      -0.225200
     26 C26          6.5980     6.6250    -2.5810 cc         1 XBV       0.006600
     27 C27          6.2910     8.5870    -3.9050 cd         1 XBV      -0.048000
     28 C28          5.0250     8.1790    -4.2070 cc         1 XBV      -0.257200
     29 C29          7.0890     7.7860    -3.0750 cd         1 XBV      -0.242000
     30 C30          4.5460     6.9700    -3.6770 c          1 XBV       0.682700
     31 O31          3.4150     6.5950    -3.9400 o          1 XBV      -0.637500
     32 F32          5.7230     1.4940    -2.2890 f          1 XBV      -0.137900
     33 C33          0.7730    -0.2070     3.6140 c3         1 XBV       0.095800
     34 C34         -0.2940    -1.0150     4.3550 c3         1 XBV       0.407900
     35 F35         -1.5510    -0.7460     3.8020 f          1 XBV      -0.237300
     36 F36         -0.0140    -2.3800     4.2320 f          1 XBV      -0.237300
     37 H1          -0.3740     0.8920    -0.4880 hc         1 XBV       0.111700
     38 H2           1.9160    -0.8920    -0.4880 hc         1 XBV       0.124700
     39 H51C        -1.2760    -0.6180     1.6450 h1         1 XBV       0.059200
     40 H52C        -0.5800     1.0130     1.8320 h1         1 XBV       0.059200
     41 H31C         2.8200    -0.6190     1.6440 h1         1 XBV       0.049700
     42 H32C         2.1250     1.0120     1.8310 h1         1 XBV       0.049700
     43 H331         0.5560     0.8500     3.7100 h1         1 XBV       0.059200
     44 H332         1.7460    -0.4160     4.0420 h1         1 XBV       0.059200
     45 H11         -2.4890    -0.8220    -0.3240 hn         1 XBV       0.332500
     46 H8           4.0320     0.7130    -0.5210 hn         1 XBV       0.336500
     47 H17         -4.3910    -2.1500    -0.9890 ha         1 XBV       0.140000
     48 H16         -1.1920    -4.9510    -3.4070 h4         1 XBV       0.041100
     49 H15         -5.2310    -4.0930    -2.2920 ha         1 XBV       0.151000
     50 H20          2.2880     3.8190    -0.4990 ha         1 XBV       0.170000
     51 H23          3.1450     5.9360    -1.4230 ha         1 XBV       0.159000
     52 H22          6.4460     3.8420    -3.1700 ha         1 XBV       0.154000
     53 H26          7.2190     6.0090    -1.9410 h4         1 XBV       0.158000
     54 H29          8.0970     8.0960    -2.8290 ha         1 XBV       0.148000
     55 H27          6.6780     9.5170    -4.3040 ha         1 XBV       0.138000
     56 H28          4.3940     8.7840    -4.8480 ha         1 XBV       0.167000
     57 H34         -0.2940    -0.7390     5.4020 h2         1 XBV       0.065700
@<TRIPOS>BOND
     1     1     2 1
     2     1     5 1
     3     1     6 1
     4     2     3 1
     5     2     7 1
     6     3     4 1
     7     4     5 1
     8     4    33 1
     9     6    10 2
    10     6    11 1
    11     7     8 1
    12     7     9 2
    13     8    19 1
    14    11    12 1
    15    12    13 ar
    16    12    17 ar
    17    13    16 ar
    18    14    15 ar
    19    14    16 ar
    20    14    18 1
    21    15    17 ar
    22    19    20 ar
    23    19    24 ar
    24    20    23 ar
    25    21    22 ar
    26    21    23 ar
    27    21    25 1
    28    22    24 ar
    29    24    32 1
    30    25    26 1
    31    25    30 1
    32    26    29 2
    33    27    28 2
    34    27    29 1
    35    28    30 1
    36    30    31 2
    37    33    34 1
    38    34    35 1
    39    34    36 1
    40     1    37 1
    41     2    38 1
    42     5    39 1
    43     5    40 1
    44     3    41 1
    45     3    42 1
    46    33    43 1
    47    33    44 1
    48    11    45 1
    49     8    46 1
    50    17    47 1
    51    16    48 1
    52    15    49 1
    53    20    50 1
    54    23    51 1
    55    22    52 1
    56    26    53 1
    57    29    54 1
    58    27    55 1
    59    28    56 1
    60    34    57 1
@<TRIPOS>SUBSTRUCTURE
     1 XBV         1 TEMP              0 ****  ****    0 ROOT
