@<TRIPOS>MOLECULE
molecule
   21    21     1     0     0
SMALL
bcc


@<TRIPOS>ATOM
      1 C8           0.0000     0.0000     0.0000 c3         1 XBZ      -0.046800
      2 C5           1.5070     0.0000     0.0000 ca         1 XBZ      -0.084300
      3 C4           2.1980     0.0000     1.1980 ca         1 XBZ      -0.124000
      4 C3           3.5810    -0.0010     1.1990 ca         1 XBZ      -0.079300
      5 C9           4.3330    -0.0010     2.5040 c3         1 XBZ      -0.045800
      6 C6           2.1990    -0.0070    -1.1970 ca         1 XBZ      -0.129000
      7 C7           3.5810    -0.0080    -1.1960 ca         1 XBZ      -0.121000
      8 C2           4.2720    -0.0030     0.0020 ca         1 XBZ      -0.088300
      9 C1           5.7790    -0.0030     0.0030 c3         1 XBZ      -0.044800
     10 H1          -0.3610    -0.8340     0.5900 hc         1 XBZ       0.041700
     11 H2          -0.3610     0.9280     0.4270 hc         1 XBZ       0.041700
     12 H3          -0.3610    -0.0940    -1.0170 hc         1 XBZ       0.041700
     13 H4           1.6560     0.0020     2.1360 ha         1 XBZ       0.130000
     14 H5           4.9940     0.8570     2.5400 hc         1 XBZ       0.042367
     15 H6           3.6290     0.0510     3.3270 hc         1 XBZ       0.042367
     16 H7           4.9160    -0.9100     2.5850 hc         1 XBZ       0.042367
     17 H8           1.6580    -0.0110    -2.1350 ha         1 XBZ       0.128000
     18 H9           4.1230    -0.0110    -2.1340 ha         1 XBZ       0.129000
     19 H10          6.1410    -0.0030    -1.0180 hc         1 XBZ       0.041700
     20 H11          6.1400     0.8820     0.5140 hc         1 XBZ       0.041700
     21 H12          6.1400    -0.8870     0.5130 hc         1 XBZ       0.041700
@<TRIPOS>BOND
     1     1     2 1
     2     6     2 ar
     3     6     7 ar
     4     2     3 ar
     5     7     8 ar
     6     3     4 ar
     7     8     4 ar
     8     8     9 1
     9     4     5 1
    10     1    10 1
    11     1    11 1
    12     1    12 1
    13     3    13 1
    14     5    14 1
    15     5    15 1
    16     5    16 1
    17     6    17 1
    18     7    18 1
    19     9    19 1
    20     9    20 1
    21     9    21 1
@<TRIPOS>SUBSTRUCTURE
     1 XBZ         1 TEMP              0 ****  ****    0 ROOT
