@<TRIPOS>MOLECULE
XC2
   61    66     1     0     0
SMALL
bcc


@<TRIPOS>ATOM
      1 S6          0.0320    0.5110   -0.0680 ss        1 XC2     -0.242700
      2 C5          1.7770    0.9120    0.0350 c3        1 XC2     -0.014300
      3 C11         2.2740    0.4250    1.3990 c3        1 XC2     -0.062300
      4 N10         1.2950   -0.5240    1.9310 n         1 XC2     -0.304000
      5 C6          0.0340   -0.4440    1.3690 cc        1 XC2      0.206200
      6 C7         -1.0590   -1.1030    1.9080 cd        1 XC2     -0.197200
      7 C8         -0.8800   -1.8170    3.1460 cd        1 XC2      0.032800
      8 C9          0.3550   -1.8900    3.7300 cc        1 XC2     -0.256400
      9 C10         1.5400   -1.3120    3.0700 c         1 XC2      0.723700
     10 O25         2.7140   -1.5510    3.4200 o         1 XC2     -0.645500
     11 C26         0.6520   -2.5400    5.0520 c3        1 XC2      0.230000
     12 N5          0.7320   -1.6900    6.2270 n3        1 XC2     -0.729600
     13 C1          1.6730   -0.5810    6.0880 c3        1 XC2      0.121800
     14 C2          1.7730    0.2570    7.3650 c3        1 XC2      0.133400
     15 O3          0.5000    0.6700    7.8590 os        1 XC2     -0.421600
     16 C34        -0.4100   -0.4080    8.0070 c3        1 XC2      0.133400
     17 C4         -0.5570   -1.2280    6.7190 c3        1 XC2      0.121800
     18 C24        -2.0820   -2.4430    3.7790 c3        1 XC2     -0.015900
     19 C15        -2.3650   -3.8410    3.3440 ca        1 XC2     -0.046300
     20 C20        -1.6010   -4.4740    2.3870 ca        1 XC2     -0.123000
     21 C19        -1.8820   -5.8010    1.9870 ca        1 XC2     -0.117000
     22 C18        -2.9290   -6.4880    2.5460 ca        1 XC2     -0.138000
     23 C17        -3.7450   -5.8690    3.5330 ca        1 XC2     -0.036000
     24 C21        -4.8370   -6.5660    4.1200 ca        1 XC2     -0.122000
     25 C27        -5.6230   -5.9640    5.0690 ca        1 XC2     -0.135000
     26 C28        -5.3530   -4.6360    5.4740 ca        1 XC2     -0.139000
     27 C29        -4.3040   -3.9420    4.9230 ca        1 XC2     -0.112000
     28 C16        -3.4680   -4.5370    3.9370 ca        1 XC2     -0.035000
     29 C22        -2.3690   -1.1200    1.2480 cx        1 XC2     -0.050500
     30 C31        -2.8820    0.0130    0.3970 cx        1 XC2     -0.135900
     31 C30        -3.5040   -0.2450    1.7330 cx        1 XC2     -0.135900
     32 C23         2.5630    1.6750    2.3320 c         1 XC2      0.928600
     33 O33         3.1910    2.6090    1.7660 o         1 XC2     -0.804800
     34 O32         2.1800    1.6440    3.5240 o         1 XC2     -0.804800
     35 H5C1        2.3140    0.4130   -0.8020 h1        1 XC2      0.088200
     36 H5C2        1.9210    2.0180   -0.0430 h1        1 XC2      0.088200
     37 H11         3.2530   -0.1220    1.3000 h1        1 XC2      0.088700
     38 H22        -2.6400   -2.1510    0.9270 hc        1 XC2      0.072700
     39 H241       -1.9590   -2.4340    4.8990 hc        1 XC2      0.067700
     40 H242       -2.9880   -1.8100    3.5520 hc        1 XC2      0.067700
     41 H261       -0.1090   -3.3440    5.2580 h1        1 XC2      0.058200
     42 H262        1.6650   -3.0370    4.9650 h1        1 XC2      0.058200
     43 H1C1        2.6850   -1.0180    5.8560 h1        1 XC2      0.058950
     44 H1C2        1.4060    0.1060    5.2270 h1        1 XC2      0.058950
     45 H4C1       -1.1920   -2.1290    6.9460 h1        1 XC2      0.058950
     46 H4C2       -1.1000   -0.5970    5.9560 h1        1 XC2      0.058950
     47 H2C1        2.3050    1.2190    7.1420 h1        1 XC2      0.040700
     48 H2C2        2.3080   -0.3070    8.1740 h1        1 XC2      0.040700
     49 H341       -1.3860    0.0800    8.2640 h1        1 XC2      0.040700
     50 H342       -0.0770   -1.0650    8.8550 h1        1 XC2      0.040700
     51 H20        -0.7540   -3.9460    1.9180 ha        1 XC2      0.157000
     52 H19        -1.2450   -6.2700    1.2230 ha        1 XC2      0.129000
     53 H18        -3.1560   -7.5210    2.2450 ha        1 XC2      0.124000
     54 H21        -5.0350   -7.5990    3.7950 ha        1 XC2      0.124000
     55 H27        -6.4670   -6.5020    5.5250 ha        1 XC2      0.123000
     56 H28        -5.9930   -4.1680    6.2360 ha        1 XC2      0.126000
     57 H29        -4.1000   -2.9080    5.2420 ha        1 XC2      0.137000
     58 H311       -3.4460   -0.2390   -0.5190 hc        1 XC2      0.071450
     59 H312       -2.2690    0.9260    0.2650 hc        1 XC2      0.071450
     60 H301       -3.3130    0.4690    2.5540 hc        1 XC2      0.071450
     61 H302       -4.5190   -0.6760    1.7840 hc        1 XC2      0.071450
@<TRIPOS>BOND
     1    1    2 1
     2    1    5 1
     3    2    3 1
     4    2   35 1
     5    2   36 1
     6    3    4 1
     7    3   32 1
     8    3   37 1
     9    4    5 1
    10    4    9 1
    11    5    6 2
    12    6    7 1
    13    6   29 1
    14    7    8 2
    15    7   18 1
    16    8    9 1
    17    8   11 1
    18    9   10 2
    19   11   12 1
    20   11   41 1
    21   11   42 1
    22   12   13 1
    23   12   17 1
    24   13   14 1
    25   13   43 1
    26   13   44 1
    27   14   15 1
    28   14   47 1
    29   14   48 1
    30   15   16 1
    31   16   17 1
    32   16   49 1
    33   16   50 1
    34   17   45 1
    35   17   46 1
    36   18   19 1
    37   18   39 1
    38   18   40 1
    39   19   20 ar
    40   19   28 ar
    41   20   21 ar
    42   20   51 1
    43   21   22 ar
    44   21   52 1
    45   22   23 ar
    46   22   53 1
    47   23   24 ar
    48   23   28 ar
    49   24   25 ar
    50   24   54 1
    51   25   26 ar
    52   25   55 1
    53   26   27 ar
    54   26   56 1
    55   27   28 ar
    56   27   57 1
    57   29   30 1
    58   29   31 1
    59   29   38 1
    60   30   31 1
    61   30   58 1
    62   30   59 1
    63   31   60 1
    64   31   61 1
    65   32   33 1
    66   32   34 1
@<TRIPOS>SUBSTRUCTURE
     1 XC2         1 TEMP              0 ****  ****    0 ROOT
