@<TRIPOS>MOLECULE
molecule
   71    74     1     0     0
SMALL
bcc


@<TRIPOS>ATOM
      1 O3           0.0000     0.0000     0.0000 o          1 XCA      -0.854300
      2 C27          1.2090     0.0000     0.0000 c          1 XCA       0.895600
      3 O2           1.8800     0.0000     1.1620 o          1 XCA      -0.854300
      4 C25          1.9620    -0.0090    -1.3060 c3         1 XCA      -0.174700
      5 C26          2.8410    -1.2590    -1.3790 c3         1 XCA      -0.071100
      6 C24          0.9670    -0.0160    -2.4680 c3         1 XCA      -0.058400
      7 C23          1.7280     0.1020    -3.7910 c3         1 XCA      -0.091400
      8 C22          0.7330     0.0960    -4.9530 c3         1 XCA      -0.081400
      9 C20          1.4940     0.2130    -6.2750 c3         1 XCA      -0.074700
     10 C21          2.3610    -1.0320    -6.4780 c3         1 XCA      -0.093100
     11 C17          0.4960     0.3320    -7.4290 c3         1 XCA      -0.054700
     12 C16         -0.4690     1.5190    -7.1830 c3         1 XCA      -0.081400
     13 C15         -0.3230     2.4630    -8.4070 c3         1 XCA      -0.079400
     14 C14          0.1940     1.5250    -9.5050 c3         1 XCA      -0.070700
     15 C8           0.9290     2.1970   -10.6510 c3         1 XCA      -0.059700
     16 C7          -0.0560     3.0740   -11.4310 c3         1 XCA      -0.039200
     17 C6           0.5280     3.4860   -12.7470 c2         1 XCA      -0.161200
     18 C13          1.2250     0.6640    -8.7280 c3         1 XCA      -0.062000
     19 C18          2.4750     1.4940    -8.4230 c3         1 XCA      -0.090100
     20 C12          1.5770    -0.5100    -9.6220 c3         1 XCA      -0.064400
     21 C11          2.2940     0.0640   -10.8530 c3         1 XCA      -0.085400
     22 C9           1.4370     1.0880   -11.5920 c3         1 XCA      -0.051700
     23 C10          2.2930     1.7420   -12.6810 c3         1 XCA      -0.013800
     24 C1           2.6840     0.7040   -13.7230 c3         1 XCA      -0.063400
     25 C19          3.5690     2.2840   -12.0340 c3         1 XCA      -0.084100
     26 C5           1.5650     2.8950   -13.3080 ce         1 XCA      -0.078200
     27 C4           2.0520     3.3750   -14.6240 ce         1 XCA      -0.159000
     28 C3           2.3130     2.4000   -15.5210 c2         1 XCA       0.047900
     29 O1           2.7810     2.6850   -16.7600 oh         1 XCA      -0.517100
     30 C2           2.0600     0.9780   -15.0830 c3         1 XCA      -0.050200
     31 H2           2.5860     0.8750    -1.3690 hc         1 XCA       0.036700
     32 H3           3.1050    -1.5750    -0.3770 hc         1 XCA       0.019367
     33 H4           3.7430    -1.0340    -1.9360 hc         1 XCA       0.019367
     34 H5           2.2980    -2.0540    -1.8770 hc         1 XCA       0.019367
     35 H6           0.2880     0.8220    -2.3660 hc         1 XCA       0.045200
     36 H7           0.4040    -0.9410    -2.4560 hc         1 XCA       0.045200
     37 H8           2.4080    -0.7360    -3.8920 hc         1 XCA       0.032200
     38 H9           2.2920     1.0270    -3.8030 hc         1 XCA       0.032200
     39 H10          0.0540     0.9340    -4.8520 hc         1 XCA       0.040700
     40 H11          0.1700    -0.8300    -4.9410 hc         1 XCA       0.040700
     41 H12          2.1260     1.0930    -6.2510 hc         1 XCA       0.055700
     42 H13          3.3270    -0.7390    -6.8710 hc         1 XCA       0.033033
     43 H14          1.8740    -1.7010    -7.1770 hc         1 XCA       0.033033
     44 H15          2.4950    -1.5370    -5.5290 hc         1 XCA       0.033033
     45 H16         -0.0650    -0.5870    -7.5420 hc         1 XCA       0.051700
     46 H17         -1.4890     1.1590    -7.1130 hc         1 XCA       0.050200
     47 H18         -0.1900     2.0420    -6.2760 hc         1 XCA       0.050200
     48 H19         -1.2830     2.8820    -8.6830 hc         1 XCA       0.040700
     49 H20          0.3990     3.2450    -8.2020 hc         1 XCA       0.040700
     50 H21         -0.6100     0.9030    -9.8800 hc         1 XCA       0.053700
     51 H22          1.7560     2.7890   -10.2800 hc         1 XCA       0.072700
     52 H23         -0.2810     3.9590   -10.8490 hc         1 XCA       0.050700
     53 H24         -0.9680     2.5150   -11.6070 hc         1 XCA       0.050700
     54 H25          0.0720     4.3180   -13.2690 ha         1 XCA       0.114000
     55 H26          2.2420     2.2320    -7.6650 hc         1 XCA       0.039033
     56 H27          3.2620     0.8430    -8.0630 hc         1 XCA       0.039033
     57 H28          2.8050     1.9940    -9.3250 hc         1 XCA       0.039033
     58 H29          0.6740    -1.0250    -9.9270 hc         1 XCA       0.044700
     59 H30          2.2370    -1.1890    -9.0950 hc         1 XCA       0.044700
     60 H31          3.2120     0.5410   -10.5330 hc         1 XCA       0.043700
     61 H32          2.5310    -0.7480   -11.5300 hc         1 XCA       0.043700
     62 H33          0.5910     0.5880   -12.0500 hc         1 XCA       0.051700
     63 H34          3.7630     0.7040   -13.8280 hc         1 XCA       0.049200
     64 H35          2.3610    -0.2720   -13.3810 hc         1 XCA       0.049200
     65 H36          4.1340     1.4630   -11.6080 hc         1 XCA       0.040367
     66 H37          3.3080     2.9870   -11.2530 hc         1 XCA       0.040367
     67 H38          4.1700     2.7840   -12.7840 hc         1 XCA       0.040367
     68 H39          1.7970     4.3710   -14.9660 ha         1 XCA       0.135000
     69 H40          2.0570     2.8710   -17.3340 ho         1 XCA       0.410000
     70 H41          2.4900     0.3020   -15.8130 hc         1 XCA       0.051200
     71 H42          0.9920     0.8110   -15.0230 hc         1 XCA       0.051200
@<TRIPOS>BOND
     1    17    16 1
     2    17    26 2
     3    27    26 1
     4    27    28 2
     5    16    15 1
     6    29    28 1
     7    26    23 1
     8    28    30 1
     9    13    14 1
    10    13    12 1
    11    15    14 1
    12    15    22 1
    13    30    24 1
    14    14    18 1
    15    23    22 1
    16    23    24 1
    17    23    25 1
    18    12    11 1
    19    22    21 1
    20    18    11 1
    21    18    19 1
    22    18    20 1
    23    11     9 1
    24    21    20 1
    25     8     9 1
    26     8     7 1
    27     9    10 1
    28     7     6 1
    29     6     4 1
    30     4     5 1
    31     4     2 1
    32     2     1 1
    33     2     3 1
    34     4    31 1
    35     5    32 1
    36     5    33 1
    37     5    34 1
    38     6    35 1
    39     6    36 1
    40     7    37 1
    41     7    38 1
    42     8    39 1
    43     8    40 1
    44     9    41 1
    45    10    42 1
    46    10    43 1
    47    10    44 1
    48    11    45 1
    49    12    46 1
    50    12    47 1
    51    13    48 1
    52    13    49 1
    53    14    50 1
    54    15    51 1
    55    16    52 1
    56    16    53 1
    57    17    54 1
    58    19    55 1
    59    19    56 1
    60    19    57 1
    61    20    58 1
    62    20    59 1
    63    21    60 1
    64    21    61 1
    65    22    62 1
    66    24    63 1
    67    24    64 1
    68    25    65 1
    69    25    66 1
    70    25    67 1
    71    27    68 1
    72    29    69 1
    73    30    70 1
    74    30    71 1
@<TRIPOS>SUBSTRUCTURE
     1 XCA         1 TEMP              0 ****  ****    0 ROOT
