@<TRIPOS>MOLECULE
XCA
   71    74     1     0     0
SMALL
bcc


@<TRIPOS>ATOM
      1 O3         -0.6590    0.4230   -0.1770 o         1 XCA     -0.848300
      2 C27         0.5170    0.0340    0.0730 c         1 XCA      0.912600
      3 O2          0.9760   -0.1010    1.2440 o         1 XCA     -0.848300
      4 C25         1.4780   -0.2620   -1.1090 c3        1 XCA     -0.187700
      5 C26         2.2450   -1.5360   -0.8460 c3        1 XCA     -0.065100
      6 C24         0.7330   -0.3140   -2.4280 c3        1 XCA     -0.066400
      7 C23         1.6450   -0.0910   -3.6180 c3        1 XCA     -0.078400
      8 C22         0.8690   -0.1490   -4.9180 c3        1 XCA     -0.079400
      9 C20         1.7600    0.0910   -6.1360 c3        1 XCA     -0.058700
     10 C21         2.5120   -1.1830   -6.4690 c3        1 XCA     -0.088100
     11 C17         0.9230    0.5750   -7.3160 c3        1 XCA     -0.050700
     12 C16         0.1780    1.8880   -6.9970 c3        1 XCA     -0.079400
     13 C15         0.1240    2.7170   -8.2820 c3        1 XCA     -0.073400
     14 C14         0.6280    1.7720   -9.3610 c3        1 XCA     -0.067700
     15 C8          1.1590    2.3530  -10.6550 c3        1 XCA     -0.046700
     16 C7          0.1110    3.2460  -11.3010 c3        1 XCA     -0.042200
     17 C6          0.3780    3.5070  -12.7300 c2        1 XCA     -0.163200
     18 C13         1.6760    0.8920   -8.6330 c3        1 XCA     -0.045000
     19 C18         2.9600    1.6440   -8.3290 c3        1 XCA     -0.082100
     20 C12         1.9490   -0.2900   -9.5490 c3        1 XCA     -0.065400
     21 C11         2.4400    0.1780  -10.9100 c3        1 XCA     -0.074400
     22 C9          1.5280    1.1920  -11.5910 c3        1 XCA     -0.046700
     23 C10         2.1240    1.7120  -12.9150 c3        1 XCA     -0.001800
     24 C1          2.1640    0.5560  -13.9270 c3        1 XCA     -0.069400
     25 C19         3.5370    2.2550  -12.7200 c3        1 XCA     -0.083100
     26 C5          1.2550    2.8140  -13.4780 ce        1 XCA     -0.059200
     27 C4          1.4020    3.1000  -14.8950 ce        1 XCA     -0.239000
     28 C3          2.0430    2.2540  -15.7290 c2        1 XCA      0.085900
     29 O1          2.1960    2.4740  -17.0790 oh        1 XCA     -0.508100
     30 C2          2.6780    0.9810  -15.2880 c3        1 XCA     -0.034200
     31 H2          2.2030    0.5970   -1.1340 hc        1 XCA      0.027700
     32 H3          2.6870   -1.4960    0.1800 hc        1 XCA      0.015033
     33 H4          3.0650   -1.6750   -1.5930 hc        1 XCA      0.015033
     34 H5          1.5670   -2.4210   -0.9010 hc        1 XCA      0.015033
     35 H6          0.2170   -1.3040   -2.5300 hc        1 XCA      0.047700
     36 H7         -0.0710    0.4720   -2.4120 hc        1 XCA      0.047700
     37 H8          2.4560   -0.8650   -3.6200 hc        1 XCA      0.026200
     38 H9          2.1440    0.9090   -3.5250 hc        1 XCA      0.026200
     39 H10         0.0530    0.6200   -4.8770 hc        1 XCA      0.038700
     40 H11         0.3710   -1.1490   -5.0160 hc        1 XCA      0.038700
     41 H12         2.5060    0.8930   -5.8730 hc        1 XCA      0.048700
     42 H13         2.8900   -1.6630   -5.5330 hc        1 XCA      0.030033
     43 H14         1.8440   -1.9090   -6.9920 hc        1 XCA      0.030033
     44 H15         3.3900   -0.9710   -7.1250 hc        1 XCA      0.030033
     45 H16         0.1640   -0.2240   -7.5430 hc        1 XCA      0.043700
     46 H17        -0.8540    1.6630   -6.6310 hc        1 XCA      0.050200
     47 H18         0.7100    2.4540   -6.1920 hc        1 XCA      0.050200
     48 H19         0.7780    3.6200   -8.2040 hc        1 XCA      0.037200
     49 H20        -0.9140    3.0670   -8.5020 hc        1 XCA      0.037200
     50 H21        -0.2370    1.0970   -9.6360 hc        1 XCA      0.043700
     51 H22         2.0720    2.9740  -10.4470 hc        1 XCA      0.057700
     52 H23        -0.9030    2.7660  -11.2130 hc        1 XCA      0.050200
     53 H24         0.0610    4.2170  -10.7370 hc        1 XCA      0.050200
     54 H25        -0.2240    4.3130  -13.1800 ha        1 XCA      0.115000
     55 H26         3.4310    2.0450   -9.2570 hc        1 XCA      0.035033
     56 H27         2.7500    2.5010   -7.6420 hc        1 XCA      0.035033
     57 H28         3.6960    0.9650   -7.8350 hc        1 XCA      0.035033
     58 H29         2.7230   -0.9630   -9.0970 hc        1 XCA      0.042200
     59 H30         1.0110   -0.8930   -9.6710 hc        1 XCA      0.042200
     60 H31         3.4660    0.6160  -10.7890 hc        1 XCA      0.036700
     61 H32         2.5390   -0.7230  -11.5720 hc        1 XCA      0.036700
     62 H33         0.5650    0.6610  -11.8490 hc        1 XCA      0.047700
     63 H34         2.8280   -0.2580  -13.5370 hc        1 XCA      0.048700
     64 H35         1.1310    0.1350  -14.0330 hc        1 XCA      0.048700
     65 H36         4.2640    1.4160  -12.5990 hc        1 XCA      0.037033
     66 H37         3.8410    2.8570  -13.6110 hc        1 XCA      0.037033
     67 H38         3.5910    2.9090  -11.8180 hc        1 XCA      0.037033
     68 H39         0.9480    4.0310  -15.2660 ha        1 XCA      0.124000
     69 H40         1.7780    3.3190  -17.2970 ho        1 XCA      0.413000
     70 H41         3.7910    1.1340  -15.2520 hc        1 XCA      0.061200
     71 H42         2.4740    0.1760  -16.0440 hc        1 XCA      0.061200
@<TRIPOS>BOND
     1    1    2 1   
     2    2    3 1   
     3    2    4 1   
     4    4    5 1   
     5    4    6 1   
     6    4   31 1   
     7    5   32 1   
     8    5   33 1   
     9    5   34 1   
    10    6    7 1   
    11    6   35 1   
    12    6   36 1   
    13    7    8 1   
    14    7   37 1   
    15    7   38 1   
    16    8    9 1   
    17    8   39 1   
    18    8   40 1   
    19    9   10 1   
    20    9   11 1   
    21    9   41 1   
    22   10   42 1   
    23   10   43 1   
    24   10   44 1   
    25   11   12 1   
    26   11   18 1   
    27   11   45 1   
    28   12   13 1   
    29   12   46 1   
    30   12   47 1   
    31   13   14 1   
    32   13   48 1   
    33   13   49 1   
    34   14   15 1   
    35   14   18 1   
    36   14   50 1   
    37   15   16 1   
    38   15   22 1   
    39   15   51 1   
    40   16   17 1   
    41   16   52 1   
    42   16   53 1   
    43   17   26 2   
    44   17   54 1   
    45   18   19 1   
    46   18   20 1   
    47   19   55 1   
    48   19   56 1   
    49   19   57 1   
    50   20   21 1   
    51   20   58 1   
    52   20   59 1   
    53   21   22 1   
    54   21   60 1   
    55   21   61 1   
    56   22   23 1   
    57   22   62 1   
    58   23   24 1   
    59   23   25 1   
    60   23   26 1   
    61   24   30 1   
    62   24   63 1   
    63   24   64 1   
    64   25   65 1   
    65   25   66 1   
    66   25   67 1   
    67   26   27 1   
    68   27   28 2   
    69   27   68 1   
    70   28   29 1   
    71   28   30 1   
    72   29   69 1   
    73   30   70 1   
    74   30   71 1   
@<TRIPOS>SUBSTRUCTURE
     1 XCA         1 TEMP              0 ****  ****    0 ROOT
