@<TRIPOS>MOLECULE
molecule
   48    51     1     0     0
SMALL
bcc


@<TRIPOS>ATOM
      1 N4           0.0000     0.0000     0.0000 nv         1 XCF      -1.053500
      2 C3           1.3840     0.0000     0.0000 ca         1 XCF       0.971900
      3 N5           2.0300     0.0000     1.1550 nb         1 XCF      -0.823000
      4 N2           2.0290    -0.0040    -1.1570 nb         1 XCF      -0.791000
      5 C1           3.3540    -0.0030    -1.1990 ca         1 XCF       0.504200
      6 C8           4.0660     0.0020    -0.0150 ca         1 XCF      -0.416900
      7 C6           3.3590     0.0010     1.1890 ca         1 XCF       0.750200
      8 N7           4.0320     0.0010     2.3990 nv         1 XCF      -1.005500
      9 C9           5.5730     0.0020    -0.0230 c3         1 XCF       0.028200
     10 C10          6.0770    -1.4120     0.1070 ca         1 XCF      -0.004300
     11 C11          6.2650    -2.1950    -1.0270 ca         1 XCF      -0.155800
     12 C27          5.9830    -1.6710    -2.3810 ce         1 XCF      -0.084200
     13 C28          6.4850    -2.3280    -3.4240 c2         1 XCF      -0.211200
     14 C14          7.3260    -3.5580    -3.2080 c3         1 XCF       0.225300
     15 C24          8.7920    -3.1470    -3.0560 cx         1 XCF      -0.167700
     16 C25          9.4800    -2.5190    -4.2710 cx         1 XCF      -0.129900
     17 C26          9.8350    -3.9450    -3.8420 cx         1 XCF      -0.129900
     18 O13          6.9080    -4.2510    -2.0310 os         1 XCF      -0.297900
     19 C12          6.7330    -3.5110    -0.9060 ca         1 XCF       0.171100
     20 C15          7.0090    -4.0290     0.3480 ca         1 XCF       0.052100
     21 O16          7.4640    -5.3060     0.4750 os         1 XCF      -0.321900
     22 C17          8.8800    -5.4900     0.5040 c3         1 XCF       0.135700
     23 C18          6.8170    -3.2400     1.4780 ca         1 XCF       0.158100
     24 C21          6.3580    -1.9360     1.3530 ca         1 XCF      -0.245000
     25 O19          7.0860    -3.7470     2.7100 os         1 XCF      -0.309900
     26 C20          6.8680    -2.8840     3.8290 c3         1 XCF       0.126700
     27 HN4         -0.5000    -0.8310     0.2460 hn         1 XCF       0.445300
     28 HN4A        -0.5000     0.8300    -0.2500 hn         1 XCF       0.445300
     29 H1           3.8720    -0.0050    -2.1500 h4         1 XCF       0.025100
     30 HN7          3.5190    -0.0520     3.2570 hn         1 XCF       0.442300
     31 HN7A         5.0270     0.1120     2.4180 hn         1 XCF       0.442300
     32 H9           5.9290     0.4280    -0.9540 hc         1 XCF       0.053200
     33 H9A          5.9380     0.5940     0.8070 hc         1 XCF       0.053200
     34 H27          5.3760    -0.7850    -2.5200 ha         1 XCF       0.137000
     35 H28          6.2650    -1.9930    -4.4310 ha         1 XCF       0.137000
     36 H14          7.2210    -4.2150    -4.0630 h1         1 XCF       0.092700
     37 H24          9.1340    -2.7740    -2.0980 hc         1 XCF       0.091700
     38 H25          8.8710    -2.4380    -5.1630 hc         1 XCF       0.075700
     39 H25A        10.2250    -1.7650    -4.0490 hc         1 XCF       0.075700
     40 H26         10.7970    -4.0610    -3.3580 hc         1 XCF       0.075700
     41 H26A         9.4420    -4.7340    -4.4720 hc         1 XCF       0.075700
     42 H17          9.1570    -6.0240     1.4050 h1         1 XCF       0.033367
     43 H17A         9.3710    -4.5240     0.4930 h1         1 XCF       0.033367
     44 H17B         9.1880    -6.0610    -0.3640 h1         1 XCF       0.033367
     45 H21          6.2120    -1.3290     2.2390 ha         1 XCF       0.131000
     46 H20          7.1960    -3.3790     4.7350 h1         1 XCF       0.041700
     47 H20A         5.8130    -2.6520     3.9060 h1         1 XCF       0.041700
     48 H20B         7.4310    -1.9680     3.6940 h1         1 XCF       0.041700
@<TRIPOS>BOND
     1     1     2 1
     2     2     3 ar
     3     2     4 ar
     4     3     7 ar
     5     4     5 ar
     6     5     6 ar
     7     6     7 ar
     8     6     9 1
     9     7     8 1
    10     9    10 1
    11    10    11 ar
    12    10    24 ar
    13    11    12 1
    14    11    19 ar
    15    12    13 2
    16    13    14 1
    17    14    15 1
    18    14    18 1
    19    15    16 1
    20    15    17 1
    21    16    17 1
    22    18    19 1
    23    19    20 ar
    24    20    21 1
    25    20    23 ar
    26    21    22 1
    27    23    24 ar
    28    23    25 1
    29    25    26 1
    30     1    27 1
    31     1    28 1
    32     5    29 1
    33     8    30 1
    34     8    31 1
    35     9    32 1
    36     9    33 1
    37    12    34 1
    38    13    35 1
    39    14    36 1
    40    15    37 1
    41    16    38 1
    42    16    39 1
    43    17    40 1
    44    17    41 1
    45    22    42 1
    46    22    43 1
    47    22    44 1
    48    24    45 1
    49    26    46 1
    50    26    47 1
    51    26    48 1
@<TRIPOS>SUBSTRUCTURE
     1 XCF         1 TEMP              0 ****  ****    0 ROOT
