@<TRIPOS>MOLECULE
XCF
   48    51     1     0     0
SMALL
bcc


@<TRIPOS>ATOM
      1 N4           0.0000     0.0000     0.0000 nv         1 XCF      -0.622500
      2 C3           1.3840     0.0000     0.0000 ca         1 XCF       0.754900
      3 N5           2.0300     0.0000     1.1550 nb         1 XCF      -0.708000
      4 N2           2.0290    -0.0040    -1.1570 nb         1 XCF      -0.691000
      5 C1           3.3540    -0.0030    -1.1990 ca         1 XCF       0.492200
      6 C8           4.0660     0.0020    -0.0150 ca         1 XCF      -0.425900
      7 C6           3.3590     0.0010     1.1890 ca         1 XCF       0.556200
      8 N7           4.0320     0.0010     2.3990 nv         1 XCF      -0.534500
      9 C9           5.5730     0.0020    -0.0230 c3         1 XCF       0.107200
     10 C10          6.0770    -1.4120     0.1070 ca         1 XCF      -0.005300
     11 C11          6.2650    -2.1950    -1.0270 ca         1 XCF      -0.159800
     12 C27          5.9830    -1.6710    -2.3810 ce         1 XCF      -0.058200
     13 C28          6.4850    -2.3280    -3.4240 c2         1 XCF      -0.199200
     14 C14          7.3260    -3.5580    -3.2080 c3         1 XCF       0.275300
     15 C24          8.7920    -3.1470    -3.0560 cx         1 XCF      -0.154700
     16 C25          9.4800    -2.5190    -4.2710 cx         1 XCF      -0.070900
     17 C26          9.8350    -3.9450    -3.8420 cx         1 XCF      -0.070900
     18 O13          6.9080    -4.2510    -2.0310 os         1 XCF      -0.281900
     19 C12          6.7330    -3.5110    -0.9060 ca         1 XCF       0.180100
     20 C15          7.0090    -4.0290     0.3480 ca         1 XCF       0.046100
     21 O16          7.4640    -5.3060     0.4750 os         1 XCF      -0.307900
     22 C17          8.8800    -5.4900     0.5040 c3         1 XCF       0.250700
     23 C18          6.8170    -3.2400     1.4780 ca         1 XCF       0.166100
     24 C21          6.3580    -1.9360     1.3530 ca         1 XCF      -0.247000
     25 O19          7.0860    -3.7470     2.7100 os         1 XCF      -0.289900
     26 C20          6.8680    -2.8840     3.8290 c3         1 XCF       0.240700
     27 HN4         -0.5000    -0.8310     0.2460 hn         1 XCF       0.278300
     28 HN4A        -0.5000     0.8300    -0.2500 hn         1 XCF       0.278300
     29 H1           3.8720    -0.0050    -2.1500 h4         1 XCF      -0.015900
     30 HN7          3.5190    -0.0520     3.2570 hn         1 XCF       0.277800
     31 HN7A         5.0270     0.1120     2.4180 hn         1 XCF       0.277800
     32 H9           5.9290     0.4280    -0.9540 hc         1 XCF       0.023200
     33 H9A          5.9380     0.5940     0.8070 hc         1 XCF       0.023200
     34 H27          5.3760    -0.7850    -2.5200 ha         1 XCF       0.120000
     35 H28          6.2650    -1.9930    -4.4310 ha         1 XCF       0.112000
     36 H14          7.2210    -4.2150    -4.0630 h1         1 XCF       0.047700
     37 H24          9.1340    -2.7740    -2.0980 hc         1 XCF       0.067700
     38 H25          8.8710    -2.4380    -5.1630 hc         1 XCF       0.045450
     39 H25A        10.2250    -1.7650    -4.0490 hc         1 XCF       0.045450
     40 H26         10.7970    -4.0610    -3.3580 hc         1 XCF       0.045450
     41 H26A         9.4420    -4.7340    -4.4720 hc         1 XCF       0.045450
     42 H17          9.1570    -6.0240     1.4050 h1         1 XCF      -0.009967
     43 H17A         9.3710    -4.5240     0.4930 h1         1 XCF      -0.009967
     44 H17B         9.1880    -6.0610    -0.3640 h1         1 XCF      -0.009967
     45 H21          6.2120    -1.3290     2.2390 ha         1 XCF       0.124000
     46 H20          7.1960    -3.3790     4.7350 h1         1 XCF      -0.002633
     47 H20A         5.8130    -2.6520     3.9060 h1         1 XCF      -0.002633
     48 H20B         7.4310    -1.9680     3.6940 h1         1 XCF      -0.002633
@<TRIPOS>BOND
     1     1     2 1   
     2     1    27 1   
     3     1    28 1   
     4     2     3 ar  
     5     2     4 ar  
     6     3     7 ar  
     7     4     5 ar  
     8     5     6 ar  
     9     5    29 1   
    10     6     7 ar  
    11     6     9 1   
    12     7     8 1   
    13     8    30 1   
    14     8    31 1   
    15     9    10 1   
    16     9    32 1   
    17     9    33 1   
    18    10    11 ar  
    19    10    24 ar  
    20    11    12 1   
    21    11    19 ar  
    22    12    13 2   
    23    12    34 1   
    24    13    14 1   
    25    13    35 1   
    26    14    15 1   
    27    14    18 1   
    28    14    36 1   
    29    15    16 1   
    30    15    17 1   
    31    15    37 1   
    32    16    17 1   
    33    16    38 1   
    34    16    39 1   
    35    17    40 1   
    36    17    41 1   
    37    18    19 1   
    38    19    20 ar  
    39    20    21 1   
    40    20    23 ar  
    41    21    22 1   
    42    22    42 1   
    43    22    43 1   
    44    22    44 1   
    45    23    24 ar  
    46    23    25 1   
    47    24    45 1   
    48    25    26 1   
    49    26    46 1   
    50    26    47 1   
    51    26    48 1   
@<TRIPOS>SUBSTRUCTURE
     1 XCF         1 TEMP              0 ****  ****    0 ROOT
