@<TRIPOS>MOLECULE
XCG
   22    24     1     0     0
SMALL
bcc


@<TRIPOS>ATOM
      1 CAE        -0.0090   -0.0030    0.1730 cc        1 XCG     -0.118200
      2 CAM         1.4400   -0.0020    0.1120 ca        1 XCG     -0.108800
      3 CAC         2.4690   -0.0020    1.0500 ca        1 XCG     -0.077000
      4 CAA         3.7840   -0.0010    0.5890 ca        1 XCG     -0.149000
      5 CAB         4.0850    0.0010   -0.7810 ca        1 XCG     -0.108000
      6 CAD         3.0810    0.0010   -1.7490 ca        1 XCG     -0.126000
      7 CAN         1.7720   -0.0000   -1.2790 ca        1 XCG      0.069100
      8 OAJ         0.6130    0.0000   -2.0580 os        1 XCG     -0.219200
      9 CAL        -0.4590   -0.0010   -1.1280 cd        1 XCG     -0.016700
     10 CAK        -1.7870   -0.0020   -1.6850 cd        1 XCG      0.453300
     11 NAH        -2.0550    0.0010   -3.0670 na        1 XCG     -0.288900
     12 CAF        -3.4350    0.0000   -3.2120 cd        1 XCG     -0.244600
     13 CAG        -3.9700   -0.0030   -1.9040 cc        1 XCG      0.292200
     14 NAI        -2.9500   -0.0040   -0.9650 nc        1 XCG     -0.641000
     15 HAE        -0.6160   -0.0040    1.0760 ha        1 XCG      0.182000
     16 HAC         2.2470   -0.0030    2.1270 ha        1 XCG      0.142000
     17 HAA         4.6100   -0.0010    1.3160 ha        1 XCG      0.135000
     18 HAB         5.1380    0.0020   -1.1000 ha        1 XCG      0.136000
     19 HAD         3.3070    0.0020   -2.8220 ha        1 XCG      0.149000
     20 HAH        -1.3740    0.0030   -3.7820 hn        1 XCG      0.313700
     21 HAF        -3.9220    0.0020   -4.1840 h4        1 XCG      0.181000
     22 HAG        -5.0170   -0.0040   -1.6060 h4        1 XCG      0.046100
@<TRIPOS>BOND
     1    1    2 1   
     2    1    9 2   
     3    1   15 1   
     4    2    3 ar  
     5    2    7 ar  
     6    3    4 ar  
     7    3   16 1   
     8    4    5 ar  
     9    4   17 1   
    10    5    6 ar  
    11    5   18 1   
    12    6    7 ar  
    13    6   19 1   
    14    7    8 1   
    15    8    9 1   
    16    9   10 1   
    17   10   11 1   
    18   10   14 2   
    19   11   12 1   
    20   11   20 1   
    21   12   13 2   
    22   12   21 1   
    23   13   14 1   
    24   13   22 1   
@<TRIPOS>SUBSTRUCTURE
     1 XCG         1 TEMP              0 ****  ****    0 ROOT
