@<TRIPOS>MOLECULE
XCH
   30    30     1     0     0
SMALL
bcc


@<TRIPOS>ATOM
      1 Cl1          0.0000     0.0000     0.0000 cl         1 XCH      -0.033400
      2 C8           1.7370     0.0000     0.0000 ca         1 XCH      -0.070600
      3 C9           2.4270     0.0000     1.1990 ca         1 XCH      -0.062000
      4 C10          3.8080     0.0000     1.2010 ca         1 XCH      -0.114300
      5 C11          4.5600     0.0000     2.5080 c3         1 XCH       0.073200
      6 C5           4.5030    -0.0010     0.0000 ca         1 XCH       0.154100
      7 C6           3.8090    -0.0020    -1.2010 ca         1 XCH      -0.201000
      8 C7           2.4270    -0.0060    -1.1990 ca         1 XCH      -0.062000
      9 O3           5.8620    -0.0010     0.0010 os         1 XCH      -0.296900
     10 C4           6.5120    -0.0020    -1.2720 c3         1 XCH       0.199400
     11 C3           8.0280    -0.0020    -1.0720 c3         1 XCH      -0.021400
     12 C2           8.7240    -0.0030    -2.4340 c3         1 XCH      -0.086400
     13 C1          10.2170    -0.0030    -2.2370 c          1 XCH       0.568100
     14 O1          10.6800    -0.0020    -1.1160 o          1 XCH      -0.612100
     15 N1          11.0380    -0.0040    -3.3050 ns         1 XCH      -0.059400
     16 O2          12.4420    -0.0040    -3.1200 oh         1 XCH      -0.436100
     17 H1           1.8840     0.0000     2.1360 ha         1 XCH       0.119000
     18 H2           3.8550     0.0010     3.3310 hc         1 XCH       0.010700
     19 H3           5.1820    -0.8850     2.5670 hc         1 XCH       0.010700
     20 H4           5.1840     0.8840     2.5660 hc         1 XCH       0.010700
     21 H5           4.3500    -0.0050    -2.1390 ha         1 XCH       0.121000
     22 H6           1.8850    -0.0070    -2.1360 ha         1 XCH       0.111000
     23 H7           6.2210     0.8820    -1.8260 h1         1 XCH      -0.001300
     24 H8           6.2210    -0.8870    -1.8250 h1         1 XCH      -0.001300
     25 H9           8.3190     0.8830    -0.5190 hc         1 XCH       0.042200
     26 H10          8.3190    -0.8860    -0.5170 hc         1 XCH       0.042200
     27 H11          8.4330    -0.8880    -2.9870 hc         1 XCH       0.024700
     28 H12          8.4330     0.8810    -2.9890 hc         1 XCH       0.024700
     29 H13         10.6560    -0.0050    -4.2300 hn         1 XCH       0.153500
     30 H14         12.8700    -0.0050    -3.9600 ho         1 XCH       0.392000
@<TRIPOS>BOND
     1     1     2 1   
     2     2     3 ar  
     3     2     8 ar  
     4     3     4 ar  
     5     3    17 1   
     6     4     5 1   
     7     4     6 ar  
     8     5    18 1   
     9     5    19 1   
    10     5    20 1   
    11     6     7 ar  
    12     6     9 1   
    13     7     8 ar  
    14     7    21 1   
    15     8    22 1   
    16     9    10 1   
    17    10    11 1   
    18    10    23 1   
    19    10    24 1   
    20    11    12 1   
    21    11    25 1   
    22    11    26 1   
    23    12    13 1   
    24    12    27 1   
    25    12    28 1   
    26    13    14 2   
    27    13    15 1   
    28    15    16 1   
    29    15    29 1   
    30    16    30 1   
@<TRIPOS>SUBSTRUCTURE
     1 XCH         1 TEMP              0 ****  ****    0 ROOT
