@<TRIPOS>MOLECULE
XCX
   65    67     1     0     0
SMALL
bcc


@<TRIPOS>ATOM
      1 N1V        -0.4010   -0.2910    0.7460 nc        1 XCX     -0.626100
      2 N2E         1.5600    0.2860   -0.6600 nh        1 XCX     -0.710600
      3 CAA         9.3890    4.0810   -1.6320 c3        1 XCX     -0.091100
      4 CAB        -1.5970   -1.4120   -9.9500 c3        1 XCX     -0.086100
      5 CAC        -2.8440   -2.4120   -8.0310 c3        1 XCX     -0.086100
      6 OAD        -1.6840    1.0820   -8.5010 o         1 XCX     -0.819300
      7 OAE        -3.4900    0.1990   -7.5230 o         1 XCX     -0.819300
      8 CAF        -1.3700   -0.6810    4.3590 ca        1 XCX     -0.138000
      9 CAG        -0.1050   -0.4520    4.9110 ca        1 XCX     -0.143000
     10 CAH         1.2750   -1.8930   -4.7760 ca        1 XCX     -0.098000
     11 CAI        -0.9000   -1.0000   -4.2380 ca        1 XCX     -0.098000
     12 CAJ         0.9290   -1.9430   -6.1190 ca        1 XCX     -0.195500
     13 CAK        -1.2660   -1.0360   -5.5780 ca        1 XCX     -0.195500
     14 CAL        -1.5980   -0.6530    2.9830 ca        1 XCX     -0.097000
     15 CAM         1.0060   -0.1810    4.1060 ca        1 XCX     -0.109000
     16 CAN         7.8860    4.1680   -1.5880 c3        1 XCX     -0.080400
     17 CAO         7.2580    2.8170   -1.3160 c3        1 XCX     -0.078400
     18 CAP         5.7480    2.9110   -1.2730 c3        1 XCX     -0.079400
     19 CAQ         5.1220    1.5600   -1.0010 c3        1 XCX     -0.078400
     20 CAR         3.6120    1.6600   -0.9570 c3        1 XCX     -0.093400
     21 CAS         0.7450   -1.3750   -2.3830 c3        1 XCX     -0.043100
     22 CAT         3.0110    0.2790   -0.6840 c3        1 XCX      0.209800
     23 CAU         0.8730    0.0820   -1.9230 c3        1 XCX      0.209800
     24 OAW        -0.5550   -1.6130   -7.8810 os        1 XCX     -0.329900
     25 OAX         1.6960    0.0900    1.7200 os        1 XCX     -0.339700
     26 CAY        -2.3810    0.1070   -8.1210 c         1 XCX      0.904600
     27 CAZ         0.3680   -1.4230   -3.8190 ca        1 XCX     -0.169300
     28 CBA        -0.3520   -1.5110   -6.5340 ca        1 XCX      0.187100
     29 CBB         0.9010   -0.0030    0.5130 cd        1 XCX      0.767500
     30 CBC        -0.5120   -0.3850    2.1470 ca        1 XCX      0.105400
     31 CBD         0.7780   -0.1520    2.7420 ca        1 XCX      0.010100
     32 CBF        -1.8610   -1.3340   -8.4490 c3        1 XCX      0.021800
     33 HAA         9.8310    5.0860   -1.8340 hc        1 XCX      0.030700
     34 HAAA        9.7200    3.3820   -2.4380 hc        1 XCX      0.030700
     35 HAAB        9.7920    3.7070   -0.6590 hc        1 XCX      0.030700
     36 HAB        -2.5680   -1.3130  -10.4880 hc        1 XCX      0.033533
     37 HABA       -0.9240   -0.5720  -10.2470 hc        1 XCX      0.033533
     38 HABB       -1.1190   -2.3830  -10.2200 hc        1 XCX      0.033533
     39 HAC        -2.9140   -2.4660   -6.9190 hc        1 XCX      0.033533
     40 HACA       -2.5300   -3.4080   -8.4220 hc        1 XCX      0.033533
     41 HACB       -3.8530   -2.1500   -8.4300 hc        1 XCX      0.033533
     42 HAF        -2.2150   -0.8900    5.0330 ha        1 XCX      0.127000
     43 HAG         0.0230   -0.4850    6.0030 ha        1 XCX      0.127000
     44 HAH         2.2750   -2.2280   -4.4630 ha        1 XCX      0.115000
     45 HAI        -1.6190   -0.6250   -3.4940 ha        1 XCX      0.115000
     46 HAJ         1.6400   -2.3060   -6.8730 ha        1 XCX      0.166000
     47 HAK        -2.2600   -0.6630   -5.8920 ha        1 XCX      0.166000
     48 HAL        -2.5980   -0.8340    2.5660 ha        1 XCX      0.150000
     49 HAM         2.0010    0.0010    4.5300 ha        1 XCX      0.142000
     50 HAN         7.5730    4.8920   -0.7900 hc        1 XCX      0.039700
     51 HANA        7.5030    4.5670   -2.5640 hc        1 XCX      0.039700
     52 HAO         7.5670    2.0920   -2.1150 hc        1 XCX      0.038200
     53 HAOA        7.6390    2.4160   -0.3400 hc        1 XCX      0.038200
     54 HAP         5.4380    3.6360   -0.4750 hc        1 XCX      0.043200
     55 HAPA        5.3680    3.3110   -2.2500 hc        1 XCX      0.043200
     56 HAQ         5.5040    1.1590   -0.0250 hc        1 XCX      0.039200
     57 HAQA        5.4310    0.8360   -1.8000 hc        1 XCX      0.039200
     58 HAR         3.3020    2.3780   -0.1540 hc        1 XCX      0.055200
     59 HARA        3.2310    2.0610   -1.9320 hc        1 XCX      0.055200
     60 HAS         1.7140   -1.9190   -2.2230 hc        1 XCX      0.044700
     61 HASA       -0.0360   -1.8910   -1.7630 hc        1 XCX      0.044700
     62 HAT         3.4170   -0.1020    0.2960 h1        1 XCX      0.056200
     63 HATA        3.3530   -0.4300   -1.4940 h1        1 XCX      0.056200
     64 HAU        -0.1590    0.5310   -1.8470 h1        1 XCX      0.076700
     65 HAUA        1.4520    0.6660   -2.6960 h1        1 XCX      0.076700
@<TRIPOS>BOND
     1    1   29 2
     2    1   30 1
     3    2   22 1
     4    2   23 1
     5    2   29 1
     6    3   16 1
     7    3   33 1
     8    3   34 1
     9    3   35 1
    10    4   32 1
    11    4   36 1
    12    4   37 1
    13    4   38 1
    14    5   32 1
    15    5   39 1
    16    5   40 1
    17    5   41 1
    18    6   26 1
    19    7   26 1
    20    8    9 ar
    21    8   14 ar
    22    8   42 1
    23    9   15 ar
    24    9   43 1
    25   10   12 ar
    26   10   27 ar
    27   10   44 1
    28   11   13 ar
    29   11   27 ar
    30   11   45 1
    31   12   28 ar
    32   12   46 1
    33   13   28 ar
    34   13   47 1
    35   14   30 ar
    36   14   48 1
    37   15   31 ar
    38   15   49 1
    39   16   17 1
    40   16   50 1
    41   16   51 1
    42   17   18 1
    43   17   52 1
    44   17   53 1
    45   18   19 1
    46   18   54 1
    47   18   55 1
    48   19   20 1
    49   19   56 1
    50   19   57 1
    51   20   22 1
    52   20   58 1
    53   20   59 1
    54   21   23 1
    55   21   27 1
    56   21   60 1
    57   21   61 1
    58   22   62 1
    59   22   63 1
    60   23   64 1
    61   23   65 1
    62   24   28 1
    63   24   32 1
    64   25   29 1
    65   25   31 1
    66   26   32 1
    67   30   31 ar
@<TRIPOS>SUBSTRUCTURE
     1 XCX         1 TEMP              0 ****  ****    0 ROOT
