@<TRIPOS>MOLECULE
XCZ
   19    19     1     0     0
SMALL
bcc


@<TRIPOS>ATOM
      1 C11          0.0000     0.0000     0.0000 ca         1 XCZ      -0.232600
      2 C10          1.3870     0.0000     0.0000 ca         1 XCZ       0.438200
      3 C2          -0.6590     0.0000     1.2180 ca         1 XCZ       0.405600
      4 C4           1.3690     0.0000     2.2970 ca         1 XCZ       0.468900
      5 C1          -2.1650     0.0000     1.2730 c3         1 XCZ      -0.044400
      6 N9           2.0300     0.0000     1.1560 nb         1 XCZ      -0.530000
      7 N3           0.0520     0.0010     2.3350 nb         1 XCZ      -0.523000
      8 N6           2.5220     1.5820     4.2310 nz         1 XCZ      -0.132500
      9 O7           1.4030    -0.5430     4.7950 o          1 XCZ      -0.470800
     10 O8           3.5490    -0.5450     3.5150 o          1 XCZ      -0.470800
     11 S5           2.2710     0.0010     3.8110 sy         1 XCZ       0.876800
     12 H11         -0.5550     0.0000    -0.9310 ha         1 XCZ       0.148000
     13 H10          1.9360    -0.0000    -0.9340 h4         1 XCZ       0.016100
     14 H11C        -2.5430    -0.9010     0.8060 hc         1 XCZ       0.034700
     15 H12C        -2.4900     0.0350     2.3060 hc         1 XCZ       0.034700
     16 H13C        -2.5460     0.8670     0.7450 hc         1 XCZ       0.034700
     17 H61          2.9600     1.6220     5.1300 hn         1 XCZ       0.315800
     18 H62          1.6440     2.0610     4.2650 hn         1 XCZ       0.315800
     19 H63          3.1140     2.0170     3.5510 hn         1 XCZ       0.315800
@<TRIPOS>BOND
     1     1     2 ar  
     2     1     3 ar  
     3     1    12 1   
     4     2     6 ar  
     5     2    13 1   
     6     3     5 1   
     7     3     7 ar  
     8     4     6 ar  
     9     4     7 ar  
    10     4    11 1   
    11     5    14 1   
    12     5    15 1   
    13     5    16 1   
    14     8    11 1   
    15     8    17 1   
    16     8    18 1   
    17     8    19 1   
    18     9    11 2   
    19    10    11 2   
@<TRIPOS>SUBSTRUCTURE
     1 XCZ         1 TEMP              0 ****  ****    0 ROOT
