@<TRIPOS>MOLECULE
molecule
   28    28     1     0     0
SMALL
bcc


@<TRIPOS>ATOM
      1 C            0.0000     0.0000     0.0000 c          1 XD1       0.579900
      2 N            1.9960     1.1990    -0.6920 nz         1 XD1      -0.798600
      3 O           -0.6040     0.9080    -0.5190 o          1 XD1      -0.500100
      4 CA           1.5070     0.0000     0.0000 c3         1 XD1      -0.010500
      5 CB           2.0170     0.0000     1.4430 c3         1 XD1       0.260600
      6 OAE          3.0810    -1.6670     5.4470 o          1 XD1      -0.793800
      7 OAF          3.8030    -1.5880     3.3600 o          1 XD1      -0.793800
      8 NAH          1.4710    -1.1580     2.2050 n7         1 XD1      -0.731200
      9 SAI          1.3100     1.4080     2.3960 ss         1 XD1      -0.611200
     10 CAJ          2.8960    -1.4230     4.1400 c          1 XD1       0.883600
     11 CAM          1.5610    -0.9250     3.6490 c3         1 XD1      -0.053500
     12 CAN          1.4180     0.5640     4.0240 c3         1 XD1       0.246100
     13 HA          -0.5410    -0.8450     0.4100 h4         1 XD1       0.070200
     14 HN           2.9960     1.2230    -0.6530 hn         1 XD1       0.462133
     15 HNA          1.6260     2.0160    -0.2470 hn         1 XD1       0.462133
     16 HAA          1.8880    -0.8850    -0.4960 hx         1 XD1       0.143700
     17 HB           3.0990     0.0120     1.4820 h2         1 XD1       0.139700
     18 HAAA         2.4000     0.8230     3.7700 hc         1 XD1       0.108367
     19 HAAB         3.5660     1.0220     4.2330 hc         1 XD1       0.108367
     20 HAAC         2.7640     0.2420     5.5140 hc         1 XD1       0.108367
     21 HAB         -0.7110     0.4250     4.2810 hc         1 XD1       0.108367
     22 HABA         0.0200     1.8560     5.0230 hc         1 XD1       0.108367
     23 HABB         0.2150     0.2690     5.7810 hc         1 XD1       0.108367
     24 HNAH         0.5150    -1.3040     1.9490 hn         1 XD1       0.336800
     25 HAM          0.8040    -1.5060     4.1620 h1         1 XD1       0.108700
     26 CAA          2.6440     1.0480     4.8010 c3         1 XD1      -0.256100
     27 CAB          0.1420     0.7960     4.8370 c3         1 XD1      -0.256100
     28 HN3          1.7000     1.1770    -1.6480 hn         1 XD1       0.462133
@<TRIPOS>BOND
     1     3     1 2
     2     4     1 1
     3     1    13 1
     4     2     4 1
     5     2    14 1
     6     2    15 1
     7     4     5 1
     8     4    16 1
     9     9     5 1
    10     8     5 1
    11     5    17 1
    12    12    26 1
    13    26    18 1
    14    26    19 1
    15    26    20 1
    16    27    12 1
    17    27    21 1
    18    27    22 1
    19    27    23 1
    20    10     6 1
    21     7    10 1
    22    11     8 1
    23     8    24 1
    24    12     9 1
    25    11    10 1
    26    12    11 1
    27    11    25 1
    28    28     2 1
@<TRIPOS>SUBSTRUCTURE
     1 XD1         1 TEMP              0 ****  ****    0 ROOT
