@<TRIPOS>MOLECULE
XD1
   28    29     1     0     0
SMALL
bcc


@<TRIPOS>ATOM
      1 C            0.0000     0.0000     0.0000 c2         1 XD1       0.295000
      2 N            1.9960     1.1990    -0.6920 nz         1 XD1       0.856000
      3 O           -0.6040     0.9080    -0.5190 o          1 XD1      -0.292000
      4 CA           1.5070     0.0000     0.0000 c3         1 XD1      -0.338000
      5 CB           2.0170     0.0000     1.4430 c3         1 XD1      -0.197000
      6 OAE          3.0810    -1.6670     5.4470 o          1 XD1      -0.569500
      7 OAF          3.8030    -1.5880     3.3600 o          1 XD1      -0.569500
      8 NAH          1.4710    -1.1580     2.2050 n7         1 XD1       0.035000
      9 SAI          1.3100     1.4080     2.3960 ss         1 XD1      -0.184000
     10 CAJ          2.8960    -1.4230     4.1400 c2         1 XD1       0.384000
     11 CAM          1.5610    -0.9250     3.6490 c3         1 XD1      -0.266000
     12 CAN          1.4180     0.5640     4.0240 DU         1 XD1       0.131000
     13 HA          -0.5410    -0.8450     0.4100 h4         1 XD1       0.123000
     14 HN           2.9960     1.2230    -0.6530 hn         1 XD1       0.026667
     15 HNA          1.6260     2.0160    -0.2470 hn         1 XD1       0.026667
     16 HAA          1.8880    -0.8850    -0.4960 hx         1 XD1       0.154000
     17 HB           3.0990     0.0120     1.4820 h2         1 XD1       0.156000
     18 HAAA         2.4000     0.8230     3.7700 DU         1 XD1       0.193000
     19 HAAB         3.5660     1.0220     4.2330 hc         1 XD1       0.165500
     20 HAAC         2.7640     0.2420     5.5140 hc         1 XD1       0.165500
     21 HAB         -0.7110     0.4250     4.2810 hc         1 XD1       0.064333
     22 HABA         0.0200     1.8560     5.0230 hc         1 XD1       0.064333
     23 HABB         0.2150     0.2690     5.7810 hc         1 XD1       0.064333
     24 HNAH         0.5150    -1.3040     1.9490 hn         1 XD1       0.037000
     25 HAM          0.8040    -1.5060     4.1620 h1         1 XD1       0.127000
     26 CAA          2.6440     1.0480     4.8010 c3         1 XD1      -0.574000
     27 CAB          0.1420     0.7960     4.8370 c3         1 XD1      -0.102000
     28 HN3          1.7000     1.1770    -1.6480 hn         1 XD1       0.026667
@<TRIPOS>BOND
     1     1     3 1   
     2     1     4 1   
     3     1    13 1   
     4     2     4 1   
     5     2    14 1   
     6     2    15 1   
     7     2    28 1   
     8     4     5 1   
     9     4    16 1   
    10     5     8 1   
    11     5     9 1   
    12     5    17 1   
    13     6    10 1   
    14     7    10 1   
    15     8    11 1   
    16     8    24 1   
    17     9    12 1   
    18    10    11 1   
    19    11    12 1   
    20    11    25 1   
    21    12    18 1   
    22    12    26 1   
    23    12    27 1   
    24    18    26 1   
    25    19    26 1   
    26    20    26 1   
    27    21    27 1   
    28    22    27 1   
    29    23    27 1   
@<TRIPOS>SUBSTRUCTURE
     1 XD1         1 TEMP              0 ****  ****    0 ROOT
