@<TRIPOS>MOLECULE
XD2
   50    52     1     0     0
SMALL
bcc


@<TRIPOS>ATOM
      1 CAA          0.0000     0.0000     0.0000 c3         1 XD2       0.034600
      2 OAB          5.7100     2.5960    -3.5930 o          1 XD2      -0.855800
      3 OAC          4.5050     1.1280   -11.3850 o          1 XD2      -0.634100
      4 OAE          3.5480     3.0230    -3.8640 o          1 XD2      -0.855800
      5 OAF          3.8540    -0.4700   -13.3400 oh         1 XD2      -0.554800
      6 CAG         -0.4410    -1.8600   -11.3440 ca         1 XD2      -0.099000
      7 CAH          0.5340    -2.6650   -10.7880 ca         1 XD2      -0.105000
      8 CAI         -0.0820    -0.7750   -12.1220 ca         1 XD2      -0.105000
      9 CAJ          1.8700    -2.3840   -11.0060 ca         1 XD2      -0.079000
     10 CAK          1.2540    -0.4940   -12.3400 ca         1 XD2      -0.079000
     11 CAL          6.1450     0.6590    -8.6240 c          1 XD2       0.660900
     12 CAM          3.9880     0.0030    -2.9200 c3         1 XD2       0.192900
     13 CAN          3.8500    -1.3050    -5.1240 c3         1 XD2       0.210900
     14 NAO          3.3580     0.0000     1.2650 nc         1 XD2       0.030000
     15 NAP          3.5750     0.0000     0.0000 nc         1 XD2      -0.401000
     16 NAQ          2.0900    -0.0000     1.5020 nd         1 XD2      -0.432800
     17 NAR          4.1860    -0.2830    -9.7040 ns         1 XD2      -0.169900
     18 NAS          4.4790     1.3850    -6.3700 nu         1 XD2      -0.388000
     19 SAU          4.5940    -1.2380    -6.7830 ss         1 XD2      -0.468200
     20 CAW          4.1550     0.0280   -11.0140 c          1 XD2       0.557100
     21 CAX          4.0740     0.0040    -4.4240 c2         1 XD2      -0.315400
     22 CAY          4.3380     1.1490    -5.0090 ce         1 XD2       0.032800
     23 CAZ          2.2300    -1.2990   -11.7830 ca         1 XD2      -0.121300
     24 CBA          2.4390     0.0010    -0.6630 cd         1 XD2       0.397800
     25 CBB          3.6860    -0.9920   -12.0200 c3         1 XD2       0.186400
     26 CBC          4.6420     0.7070    -8.7260 c3         1 XD2      -0.098300
     27 CBD          4.0280     0.3960    -7.3590 c3         1 XD2       0.249600
     28 NBE          1.4430     0.0010     0.2540 na         1 XD2       0.342600
     29 H1          -0.2670     0.8840    -0.5660 h1         1 XD2       0.026700
     30 H2          -0.5330     0.0000     0.9430 h1         1 XD2       0.026700
     31 H3          -0.2670    -0.8850    -0.5650 h1         1 XD2       0.026700
     32 H6           4.5270    -0.9570   -13.7870 ho         1 XD2       0.388000
     33 H9          -0.8470    -0.1440   -12.5580 ha         1 XD2       0.102000
     34 H10          2.6340    -3.0150   -10.5700 ha         1 XD2       0.116000
     35 H11          1.5360     0.3560   -12.9490 ha         1 XD2       0.116000
     36 H12          6.6670     1.3610    -7.9860 h4         1 XD2      -0.014800
     37 H14          4.4770    -0.8820    -2.5310 h1         1 XD2       0.078200
     38 H15          4.4770     0.8870    -2.5290 h1         1 XD2       0.078200
     39 H16          2.7860    -1.4880    -5.2140 h1         1 XD2       0.040700
     40 H17          4.3120    -2.1020    -4.5540 h1         1 XD2       0.040700
     41 H18          3.9380    -1.2050    -9.4030 hn         1 XD2       0.196500
     42 H20          4.2690    -1.8990   -11.9130 h1         1 XD2       0.013700
     43 H21          4.3330     1.6960    -9.0430 h1         1 XD2       0.079700
     44 H22          2.9460     0.4080    -7.4230 h2         1 XD2       0.051700
     45 H5           4.8940     2.2410    -6.6820 hn         1 XD2       0.307800
     46 SAT          2.2500     0.0020    -2.4150 ss         1 XD2      -0.403400
     47 CAV          4.5020     2.3150    -4.1210 c          1 XD2       0.951800
     48 H7          -1.4880    -2.0810   -11.1730 ha         1 XD2       0.099000
     49 OAD          6.7700    -0.1230    -9.2990 o          1 XD2      -0.556100
     50 H8           0.2520    -3.5160   -10.1790 ha         1 XD2       0.102000
@<TRIPOS>BOND
     1     1    28 1   
     2     1    29 1   
     3     1    30 1   
     4     1    31 1   
     5     2    47 1   
     6     3    20 2   
     7     4    47 1   
     8     5    25 1   
     9     5    32 1   
    10     6     7 ar  
    11     6     8 ar  
    12     6    48 1   
    13     7     9 ar  
    14     7    50 1   
    15     8    10 ar  
    16     8    33 1   
    17     9    23 ar  
    18     9    34 1   
    19    10    23 ar  
    20    10    35 1   
    21    11    26 1   
    22    11    36 1   
    23    11    49 2   
    24    12    21 1   
    25    12    37 1   
    26    12    38 1   
    27    12    46 1   
    28    13    19 1   
    29    13    21 1   
    30    13    39 1   
    31    13    40 1   
    32    14    15 1   
    33    14    16 2   
    34    15    24 2   
    35    16    28 1   
    36    17    20 1   
    37    17    26 1   
    38    17    41 1   
    39    18    22 1   
    40    18    27 1   
    41    18    45 1   
    42    19    27 1   
    43    20    25 1   
    44    21    22 2   
    45    22    47 1   
    46    23    25 1   
    47    24    28 1   
    48    24    46 1   
    49    25    42 1   
    50    26    27 1   
    51    26    43 1   
    52    27    44 1   
@<TRIPOS>SUBSTRUCTURE
     1 XD2         1 TEMP              0 ****  ****    0 ROOT
