@<TRIPOS>MOLECULE
molecule
   50    52     1     0     0
SMALL
bcc


@<TRIPOS>ATOM
      1 CAA          0.0000     0.0000     0.0000 c3         1 XD2       0.058600
      2 OAB          5.7100     2.5960    -3.5930 o          1 XD2      -0.805800
      3 OAC          4.5050     1.1280   -11.3850 o          1 XD2      -0.592100
      4 OAE          3.5480     3.0230    -3.8640 o          1 XD2      -0.805800
      5 OAF          3.8540    -0.4700   -13.3400 oh         1 XD2      -0.572800
      6 CAG         -0.4410    -1.8600   -11.3440 ca         1 XD2      -0.124000
      7 CAH          0.5340    -2.6650   -10.7880 ca         1 XD2      -0.132000
      8 CAI         -0.0820    -0.7750   -12.1220 ca         1 XD2      -0.132000
      9 CAJ          1.8700    -2.3840   -11.0060 ca         1 XD2      -0.105500
     10 CAK          1.2540    -0.4940   -12.3400 ca         1 XD2      -0.105500
     11 CAL          6.1450     0.6590    -8.6240 c          1 XD2       0.574900
     12 CAM          3.9880     0.0030    -2.9200 c3         1 XD2       0.096900
     13 CAN          3.8500    -1.3050    -5.1240 c3         1 XD2       0.118900
     14 NAO          3.3580     0.0000     1.2650 nc         1 XD2      -0.012000
     15 NAP          3.5750     0.0000     0.0000 nd         1 XD2      -0.424000
     16 NAQ          2.0900    -0.0000     1.5020 nd         1 XD2      -0.257800
     17 NAR          4.1860    -0.2830    -9.7040 ns         1 XD2      -0.562900
     18 NAS          4.4790     1.3850    -6.3700 nu         1 XD2      -0.799000
     19 SAU          4.5940    -1.2380    -6.7830 ss         1 XD2      -0.424200
     20 CAW          4.1550     0.0280   -11.0140 c          1 XD2       0.652100
     21 CAX          4.0740     0.0040    -4.4240 c2         1 XD2      -0.302400
     22 CAY          4.3380     1.1490    -5.0090 ce         1 XD2       0.175800
     23 CAZ          2.2300    -1.2990   -11.7830 ca         1 XD2      -0.104300
     24 CBA          2.4390     0.0010    -0.6630 cc         1 XD2       0.533800
     25 CBB          3.6860    -0.9920   -12.0200 c3         1 XD2       0.127400
     26 CBC          4.6420     0.7070    -8.7260 c3         1 XD2       0.001700
     27 CBD          4.0280     0.3960    -7.3590 c3         1 XD2       0.342600
     28 NBE          1.4430     0.0010     0.2540 na         1 XD2      -0.080400
     29 H1          -0.2670     0.8840    -0.5660 h1         1 XD2       0.058367
     30 H2          -0.5330     0.0000     0.9430 h1         1 XD2       0.058367
     31 H3          -0.2670    -0.8850    -0.5650 h1         1 XD2       0.058367
     32 H6           4.5270    -0.9570   -13.7870 ho         1 XD2       0.405000
     33 H9          -0.8470    -0.1440   -12.5580 ha         1 XD2       0.129500
     34 H10          2.6340    -3.0150   -10.5700 ha         1 XD2       0.141500
     35 H11          1.5360     0.3560   -12.9490 ha         1 XD2       0.141500
     36 H12          6.6670     1.3610    -7.9860 h4         1 XD2       0.022200
     37 H14          4.4770    -0.8820    -2.5310 h1         1 XD2       0.100700
     38 H15          4.4770     0.8870    -2.5290 h1         1 XD2       0.100700
     39 H16          2.7860    -1.4880    -5.2140 h1         1 XD2       0.063200
     40 H17          4.3120    -2.1020    -4.5540 h1         1 XD2       0.063200
     41 H18          3.9380    -1.2050    -9.4030 hn         1 XD2       0.331500
     42 H20          4.2690    -1.8990   -11.9130 h1         1 XD2       0.053700
     43 H21          4.3330     1.6960    -9.0430 h1         1 XD2       0.106700
     44 H22          2.9460     0.4080    -7.4230 h2         1 XD2       0.074700
     45 H5           4.8940     2.2410    -6.6820 hn         1 XD2       0.452800
     46 SAT          2.2500     0.0020    -2.4150 ss         1 XD2      -0.299400
     47 CAV          4.5020     2.3150    -4.1210 c          1 XD2       0.860800
     48 H7          -1.4880    -2.0810   -11.1730 ha         1 XD2       0.126000
     49 OAD          6.7700    -0.1230    -9.2990 o          1 XD2      -0.521100
     50 H8           0.2520    -3.5160   -10.1790 ha         1 XD2       0.129500
@<TRIPOS>BOND
     1     6     7 ar
     2     6     8 ar
     3     7     9 ar
     4     8    10 ar
     5     9    23 ar
     6    10    23 ar
     7    23    25 1
     8     1    28 1
     9     5    25 1
    10    25    20 1
    11    46    12 1
    12    46    24 1
    13    12    21 1
    14    28    24 1
    15    28    16 1
    16    24    15 2
    17    13    21 1
    18    13    19 1
    19    20    17 1
    20    20     3 2
    21    21    22 2
    22    16    14 2
    23    17    26 1
    24     4    47 1
    25    15    14 1
    26    22    47 1
    27    22    18 1
    28    47     2 1
    29    19    27 1
    30    49    11 2
    31    26    27 1
    32    26    11 1
    33    18    27 1
    34     1    29 1
    35     1    30 1
    36     1    31 1
    37     5    32 1
    38     6    48 1
    39     7    50 1
    40     8    33 1
    41     9    34 1
    42    10    35 1
    43    11    36 1
    44    12    37 1
    45    12    38 1
    46    13    39 1
    47    13    40 1
    48    17    41 1
    49    25    42 1
    50    26    43 1
    51    27    44 1
    52    18    45 1
@<TRIPOS>SUBSTRUCTURE
     1 XD2         1 TEMP              0 ****  ****    0 ROOT
