@<TRIPOS>MOLECULE
molecule
   40    41     1     0     0
SMALL
bcc


@<TRIPOS>ATOM
      1 O7           0.0000     0.0000     0.0000 oh         1 XD3      -0.607800
      2 C11          1.4290     0.0000     0.0000 c3         1 XD3       0.133100
      3 C            1.9410     0.0000     1.4450 c3         1 XD3       0.115100
      4 O            1.5280     1.2020     2.0980 oh         1 XD3      -0.601800
      5 C10          1.9420    -1.2550    -0.7120 c3         1 XD3      -0.119400
      6 C3           3.4710    -1.2860    -0.6370 c3         1 XD3       0.336900
      7 O2           3.8810    -1.2530     0.7310 os         1 XD3      -0.423600
      8 C1           3.4690    -0.0800     1.4350 c3         1 XD3       0.137100
      9 C2           3.9850    -0.1410     2.8740 c3         1 XD3       0.148400
     10 O1           5.4140    -0.0970     2.8710 oh         1 XD3      -0.607800
     11 O3           4.0050    -0.1500    -1.3220 os         1 XD3      -0.445600
     12 C4           5.4200    -0.1960    -1.5080 c3         1 XD3       0.183300
     13 C9           5.7910     0.5570    -2.7900 c3         1 XD3       0.110100
     14 O6           5.4150    -0.2160    -3.9310 oh         1 XD3      -0.603800
     15 C7           7.3110     0.7780    -2.7920 c3         1 XD3       0.152100
     16 C8           7.7270     1.4840    -4.0840 c3         1 XD3       0.148400
     17 O5           9.1520     1.5830    -4.1350 oh         1 XD3      -0.599800
     18 O4           7.6450     1.5960    -1.6670 os         1 XD3      -0.322900
     19 C6           7.1200     1.2580    -0.4690 c2         1 XD3       0.051100
     20 C5           6.1020     0.4490    -0.3330 c2         1 XD3      -0.327200
     21 H1          -0.3140     0.6370    -0.6200 ho         1 XD3       0.408000
     22 H2           1.7960     0.8810    -0.5130 h1         1 XD3       0.062700
     23 H3           1.5390    -0.8590     1.9690 h1         1 XD3       0.052700
     24 H4           0.8590     1.0020     2.7320 ho         1 XD3       0.411000
     25 H5           1.6310    -1.2330    -1.7500 hc         1 XD3       0.069200
     26 H6           1.5390    -2.1350    -0.2260 hc         1 XD3       0.069200
     27 H7           3.8350    -2.1960    -1.1000 h2         1 XD3       0.081700
     28 H8           3.8710     0.7960     0.9400 h1         1 XD3       0.081700
     29 H9           3.6530    -1.0630     3.3380 h1         1 XD3       0.035200
     30 H10          3.5990     0.7030     3.4330 h1         1 XD3       0.035200
     31 H11          5.7290    -0.0600     3.7590 ho         1 XD3       0.404000
     32 H12          5.7450    -1.2260    -1.5910 h1         1 XD3       0.061700
     33 H13          5.2850     1.5150    -2.8090 h1         1 XD3       0.060700
     34 H14          4.6570     0.1700    -4.3360 ho         1 XD3       0.410000
     35 H15          7.8170    -0.1760    -2.7120 h1         1 XD3       0.073700
     36 H16          7.3740     0.9150    -4.9360 h1         1 XD3       0.036700
     37 H17          7.2950     2.4770    -4.1090 h1         1 XD3       0.036700
     38 H18          9.4150     1.9060    -4.9810 ho         1 XD3       0.403000
     39 H19          7.5650     1.6790     0.4250 h4         1 XD3       0.170000
     40 H20          5.7380     0.2330     0.6640 ha         1 XD3       0.178000
@<TRIPOS>BOND
     1     1     2 1
     2     2     5 1
     3     2     3 1
     4     4     3 1
     5     5     6 1
     6     3     8 1
     7    10     9 1
     8     6     7 1
     9     6    11 1
    10     8     7 1
    11     8     9 1
    12    11    12 1
    13    14    13 1
    14    12    13 1
    15    12    20 1
    16    13    15 1
    17    20    19 2
    18    15    16 1
    19    15    18 1
    20    16    17 1
    21    19    18 1
    22     1    21 1
    23     2    22 1
    24     3    23 1
    25     4    24 1
    26     5    25 1
    27     5    26 1
    28     6    27 1
    29     8    28 1
    30     9    29 1
    31     9    30 1
    32    10    31 1
    33    12    32 1
    34    13    33 1
    35    14    34 1
    36    15    35 1
    37    16    36 1
    38    16    37 1
    39    17    38 1
    40    19    39 1
    41    20    40 1
@<TRIPOS>SUBSTRUCTURE
     1 XD3         1 TEMP              0 ****  ****    0 ROOT
