@<TRIPOS>MOLECULE
XD6
   44    45     1     0     0
SMALL
bcc


@<TRIPOS>ATOM
      1 C1          0.0840   -0.6450   -0.2820 c         1 XD6      0.672700
      2 C2          1.5270   -0.3580   -0.1620 ca        1 XD6     -0.172600
      3 C3          2.2970   -0.2570   -1.3380 ca        1 XD6      0.206100
      4 C4          3.6720   -0.0120   -1.2820 ca        1 XD6     -0.249000
      5 C5          4.2790    0.1450   -0.0290 ca        1 XD6      0.201100
      6 C6          3.5160    0.0610    1.1550 ca        1 XD6     -0.096600
      7 C7          2.1400   -0.2070    1.0910 ca        1 XD6      0.058700
      8 C8          1.3200   -0.2990    2.3310 c3        1 XD6     -0.158100
      9 C9          1.3830   -1.6340    3.0350 c         1 XD6      0.577100
     10 C10         0.2640   -1.8510    4.0210 c3        1 XD6     -0.178400
     11 C11        -0.9860   -2.3360    3.3130 c3        1 XD6     -0.081400
     12 C12        -2.2370   -2.0620    4.1220 c3        1 XD6     -0.074400
     13 C13        -3.4760   -1.9810    3.2450 c3        1 XD6     -0.036200
     14 C14        -3.5030   -0.7210    2.4440 ce        1 XD6     -0.223400
     15 C15        -3.0280   -0.6890    1.1860 c2        1 XD6     -0.105200
     16 C16        -2.9370    0.5140    0.3270 c3        1 XD6     -0.091200
     17 C17        -2.0450    0.3030   -0.8870 c3        1 XD6      0.136400
     18 O1         -0.6630    0.4730   -0.5500 os        1 XD6     -0.430900
     19 O2         -0.4940   -1.7270   -0.1760 o         1 XD6     -0.531000
     20 O3          1.6360   -0.4150   -2.5300 oh        1 XD6     -0.486100
     21 O4          5.6250    0.3910   -0.0550 oh        1 XD6     -0.484100
     22 CL1         4.2890    0.2860    2.6560 cl        1 XD6     -0.078400
     23 O5          2.2720   -2.4660    2.8520 o         1 XD6     -0.508100
     24 C21        -4.0550    0.4740    3.1070 c         1 XD6      0.564100
     25 O22        -4.4120    0.5020    4.2870 o         1 XD6     -0.526100
     26 H4          4.2820    0.0580   -2.1930 ha        1 XD6      0.164000
     27 H3          2.2850   -0.3520   -3.2480 ho        1 XD6      0.433000
     28 HA          5.9540    0.4300    0.8590 ho        1 XD6      0.439000
     29 H81C        0.2430   -0.0770    2.0880 hc        1 XD6      0.087700
     30 H82C        1.6560    0.4830    3.0690 hc        1 XD6      0.087700
     31 H101        0.0620   -0.8850    4.5560 hc        1 XD6      0.066200
     32 H102        0.5840   -2.6060    4.7870 hc        1 XD6      0.066200
     33 H111       -0.8980   -3.4360    3.1110 hc        1 XD6      0.055700
     34 H112       -1.0690   -1.8330    2.3090 hc        1 XD6      0.055700
     35 H121       -2.1380   -1.0990    4.6900 hc        1 XD6      0.048700
     36 H122       -2.3800   -2.8780    4.8770 hc        1 XD6      0.048700
     37 H131       -4.3860   -2.0110    3.9050 hc        1 XD6      0.057200
     38 H132       -3.5150   -2.8730    2.5660 hc        1 XD6      0.057200
     39 H15        -2.6440   -1.6210    0.7250 ha        1 XD6      0.157000
     40 H161       -2.5460    1.3900    0.9130 hc        1 XD6      0.068700
     41 H162       -3.9650    0.7850   -0.0410 hc        1 XD6      0.068700
     42 H171       -2.2210    1.1190   -1.6410 h1        1 XD6      0.070700
     43 H172       -2.2190   -0.7010   -1.3550 h1        1 XD6      0.070700
     44 H21        -4.1460    1.3800    2.4620 h4        1 XD6     -0.009800
@<TRIPOS>BOND
     1    1    2 1
     2    1   18 1
     3    1   19 2
     4    2    3 ar
     5    2    7 ar
     6    3    4 ar
     7    3   20 1
     8    4    5 ar
     9    4   26 1
    10    5    6 ar
    11    5   21 1
    12    6    7 ar
    13    6   22 1
    14    7    8 1
    15    8    9 1
    16    8   29 1
    17    8   30 1
    18    9   10 1
    19    9   23 2
    20   10   11 1
    21   10   31 1
    22   10   32 1
    23   11   12 1
    24   11   33 1
    25   11   34 1
    26   12   13 1
    27   12   35 1
    28   12   36 1
    29   13   14 1
    30   13   37 1
    31   13   38 1
    32   14   15 2
    33   14   24 1
    34   15   16 1
    35   15   39 1
    36   16   17 1
    37   16   40 1
    38   16   41 1
    39   17   18 1
    40   17   42 1
    41   17   43 1
    42   20   27 1
    43   21   28 1
    44   24   25 2
    45   24   44 1
@<TRIPOS>SUBSTRUCTURE
     1 XD6         1 TEMP              0 ****  ****    0 ROOT
