@<TRIPOS>MOLECULE
molecule
   31    32     1     0     0
SMALL
bcc


@<TRIPOS>ATOM
      1 CAA          0.0000     0.0000     0.0000 c3         1 XD9      -0.049900
      2 CAG          1.5070     0.0000     0.0000 c2         1 XD9      -0.218200
      3 CAH          2.1720     0.0000     1.1510 ce         1 XD9      -0.050200
      4 CAM          3.6430    -0.0010     1.1520 cc         1 XD9      -0.035900
      5 CAI          4.4200     0.0000     2.2500 cd         1 XD9      -0.082000
      6 SAK          4.6580    -0.0090    -0.2830 ss         1 XD9      -0.218800
      7 CAO          6.1130    -0.0060     0.7050 cc         1 XD9      -0.045400
      8 CAN          5.7860    -0.0020     2.0140 cd         1 XD9      -0.041300
      9 CAR          6.8280    -0.0020     3.1250 c3         1 XD9       0.110100
     10 CAL          6.4130    -0.9630     4.2070 c          1 XD9       0.868600
     11 OAC          5.5720    -0.5630     5.1740 o          1 XD9      -0.826800
     12 OAB          6.8370    -2.0950     4.2050 o          1 XD9      -0.826800
     13 OAF          6.9460     1.3140     3.6700 oh         1 XD9      -0.615800
     14 CAJ          8.1720    -0.4390     2.5380 c3         1 XD9      -0.094400
     15 CAP          8.4820     0.4030     1.2970 c3         1 XD9       0.140100
     16 OAD          9.8320     0.1760     0.8890 oh         1 XD9      -0.620800
     17 CAQ          7.5300    -0.0100     0.1690 c3         1 XD9       0.223400
     18 OAE          7.6360     0.9160    -0.9130 oh         1 XD9      -0.605800
     19 HAA1        -0.3610    -0.8850     0.5100 hc         1 XD9       0.031700
     20 HAA2        -0.3610     0.0000    -1.0210 hc         1 XD9       0.031700
     21 HAA3        -0.3610     0.8840     0.5110 hc         1 XD9       0.031700
     22 HAG          2.0490    -0.0010    -0.9380 ha         1 XD9       0.125000
     23 HAH          1.6300     0.0000     2.0890 ha         1 XD9       0.135000
     24 HAI          4.0060     0.0020     3.2510 ha         1 XD9       0.190000
     25 HAQ          7.7850    -1.0060    -0.1720 h1         1 XD9       0.050700
     26 HAF          7.1530     1.2560     4.5880 ho         1 XD9       0.416000
     27 HAJ1         8.1220    -1.4850     2.2600 hc         1 XD9       0.065200
     28 HAJ2         8.9520    -0.2930     3.2760 hc         1 XD9       0.065200
     29 HAP          8.3380     1.4520     1.5260 h1         1 XD9       0.062700
     30 HAD         10.3430     0.9530     1.0460 ho         1 XD9       0.395000
     31 HAE          7.6820     0.4440    -1.7280 ho         1 XD9       0.392000
@<TRIPOS>BOND
     1     1     2 1
     2     2     3 2
     3     3     4 1
     4     4     5 2
     5     4     6 1
     6     5     8 1
     7     6     7 1
     8     7     8 2
     9     7    17 1
    10     8     9 1
    11     9    10 1
    12     9    13 1
    13     9    14 1
    14    10    11 1
    15    10    12 1
    16    14    15 1
    17    15    16 1
    18    15    17 1
    19    17    18 1
    20     1    19 1
    21     1    20 1
    22     1    21 1
    23     2    22 1
    24     3    23 1
    25     5    24 1
    26    17    25 1
    27    13    26 1
    28    14    27 1
    29    14    28 1
    30    15    29 1
    31    16    30 1
    32    18    31 1
@<TRIPOS>SUBSTRUCTURE
     1 XD9         1 TEMP              0 ****  ****    0 ROOT
