@<TRIPOS>MOLECULE
XD9
   31    32     1     0     0
SMALL
bcc


@<TRIPOS>ATOM
      1 CAA         1.5240    0.0610   -0.8030 c3        1 XD9     -0.063900
      2 CAG         1.1660    0.4390    0.5760 c2        1 XD9     -0.214200
      3 CAH         2.0420    0.5500    1.5880 ce        1 XD9     -0.051200
      4 CAM         3.4550    0.3270    1.5170 cc        1 XD9     -0.096900
      5 CAI         4.3310    0.4520    2.5820 cd        1 XD9     -0.102000
      6 SAK         4.2800   -0.1380    0.1090 ss        1 XD9     -0.043800
      7 CAO         5.7820   -0.1620    0.8640 cc        1 XD9     -0.160400
      8 CAN         5.6810    0.1690    2.2050 cd        1 XD9     -0.048300
      9 CAR         6.8320    0.2200    3.1620 c3        1 XD9      0.069100
     10 CAL         6.4110   -0.4690    4.5150 c         1 XD9      0.909600
     11 OAC         5.9170    0.3120    5.3780 o         1 XD9     -0.816800
     12 OAB         6.5830   -1.7040    4.6500 o         1 XD9     -0.816800
     13 OAF         7.1680    1.5850    3.4040 oh        1 XD9     -0.630800
     14 CAJ         8.0620   -0.4620    2.5660 c3        1 XD9     -0.056400
     15 CAP         8.2510   -0.0690    1.1100 c3        1 XD9      0.120100
     16 OAD         9.4590   -0.6590    0.6440 oh        1 XD9     -0.606800
     17 CAQ         7.0680   -0.5440    0.2360 c3        1 XD9      0.185400
     18 OAE         7.2300   -0.0320   -1.0830 oh        1 XD9     -0.621800
     19 HAA1        2.2480    0.7980   -1.2410 hc        1 XD9      0.039700
     20 HAA2        2.0160   -0.9480   -0.8220 hc        1 XD9      0.039700
     21 HAA3        0.6220    0.0240   -1.4590 hc        1 XD9      0.039700
     22 HAG         0.0980    0.6360    0.7580 ha        1 XD9      0.111000
     23 HAH         1.6770    0.8360    2.5930 ha        1 XD9      0.129000
     24 HAI         4.0710    0.7100    3.6150 ha        1 XD9      0.186000
     25 HAQ         7.1270   -1.6630    0.0980 h1        1 XD9      0.088700
     26 HAF         6.7310    1.8340    4.2350 ho        1 XD9      0.428000
     27 HAJ1        7.9340   -1.5720    2.6630 hc        1 XD9      0.073700
     28 HAJ2        8.9690   -0.1610    3.1490 hc        1 XD9      0.073700
     29 HAP         8.3390    1.0520    1.0270 h1        1 XD9      0.041700
     30 HAD         9.4630   -0.5430   -0.3150 ho        1 XD9      0.394000
     31 HAE         7.1120    0.9240   -1.0340 ho        1 XD9      0.400000
@<TRIPOS>BOND
     1    1    2 1   
     2    1   19 1   
     3    1   20 1   
     4    1   21 1   
     5    2    3 2   
     6    2   22 1   
     7    3    4 1   
     8    3   23 1   
     9    4    5 2   
    10    4    6 1   
    11    5    8 1   
    12    5   24 1   
    13    6    7 1   
    14    7    8 2   
    15    7   17 1   
    16    8    9 1   
    17    9   10 1   
    18    9   13 1   
    19    9   14 1   
    20   10   11 1   
    21   10   12 1   
    22   13   26 1   
    23   14   15 1   
    24   14   27 1   
    25   14   28 1   
    26   15   16 1   
    27   15   17 1   
    28   15   29 1   
    29   16   30 1   
    30   17   18 1   
    31   17   25 1   
    32   18   31 1   
@<TRIPOS>SUBSTRUCTURE
     1 XD9         1 TEMP              0 ****  ****    0 ROOT
