@<TRIPOS>MOLECULE
molecule
   58    59     1     0     0
SMALL
bcc


@<TRIPOS>ATOM
      1 O8           0.0000     0.0000     0.0000 o          1 XDA      -0.568100
      2 C7           1.2120     0.0000     0.0000 c          1 XDA       0.655100
      3 N9           1.8860     0.0050    -1.1680 n          1 XDA      -0.503800
      4 C11          3.3440    -0.1360    -1.1720 c3         1 XDA       0.099800
      5 C10          1.1610     0.1500    -2.4320 c3         1 XDA       0.099800
      6 C4           1.9670     0.0000     1.3050 c3         1 XDA      -0.160700
      7 C5           2.7110     1.3310     1.4700 c3         1 XDA      -0.080400
      8 C6           3.6050     1.2340     2.7090 c3         1 XDA      -0.046200
      9 C1           2.8170     0.7180     3.8750 c2         1 XDA      -0.178200
     10 C2           1.6790     0.1100     3.7710 c2         1 XDA      -0.173200
     11 C3           0.9830    -0.1520     2.4670 c3         1 XDA       0.194900
     12 N12         -0.1150     0.8040     2.3010 ns         1 XDA      -0.549900
     13 C13         -1.3150     0.5550     2.8610 c          1 XDA       0.761100
     14 O14         -1.4870    -0.4630     3.5020 o          1 XDA      -0.635000
     15 O15         -2.3250     1.4330     2.7100 os         1 XDA      -0.427900
     16 C16         -3.5890     1.0990     3.3400 c3         1 XDA       0.217700
     17 C17         -4.5910     2.1900     3.0640 ca         1 XDA      -0.107300
     18 C22         -4.6990     3.2620     3.9320 ca         1 XDA      -0.120000
     19 C21         -5.6140     4.2640     3.6850 ca         1 XDA      -0.095000
     20 C18         -5.3960     2.1190     1.9400 ca         1 XDA      -0.120000
     21 C19         -6.3140     3.1150     1.6810 ca         1 XDA      -0.095000
     22 C20         -6.4320     4.1960     2.5560 ca         1 XDA      -0.111600
     23 C23         -7.4150     5.2660     2.2860 c          1 XDA       0.650700
     24 O24         -7.5130     6.2090     3.0470 o          1 XDA      -0.659100
     25 N25         -8.2040     5.1970     1.1950 ns         1 XDA      -0.526900
     26 C26         -9.1780     6.2580     0.9260 c3         1 XDA       0.094000
     27 C27         -9.9380     5.9380    -0.3630 c3         1 XDA       0.200400
     28 O28        -10.7120     4.7520    -0.1780 os         1 XDA      -0.578200
     29 P29        -11.6400     4.1220    -1.3320 p5         1 XDA       1.171900
     30 O31        -10.7140     3.6230    -2.5510 o          1 XDA      -0.906500
     31 O30        -12.4630     2.8720    -0.7370 o          1 XDA      -0.906500
     32 O32        -12.5880     5.1490    -1.8190 o          1 XDA      -0.906500
     33 H11B         3.8020     0.8340    -1.0210 h1         1 XDA       0.039867
     34 H11A         3.6450    -0.8050    -0.3750 h1         1 XDA       0.039867
     35 H11C         3.6650    -0.5420    -2.1240 h1         1 XDA       0.039867
     36 H10C         0.5610     1.0520    -2.4030 h1         1 XDA       0.039867
     37 H10B         1.8680     0.2130    -3.2490 h1         1 XDA       0.039867
     38 H10A         0.5150    -0.7080    -2.5780 h1         1 XDA       0.039867
     39 H4           2.6770    -0.8180     1.3210 hc         1 XDA       0.072700
     40 H5A          3.3220     1.5170     0.5950 hc         1 XDA       0.053200
     41 H5B          1.9960     2.1340     1.6000 hc         1 XDA       0.053200
     42 H6B          3.9940     2.2170     2.9470 hc         1 XDA       0.046200
     43 H6A          4.4270     0.5580     2.5050 hc         1 XDA       0.046200
     44 H1           3.2260     0.8610     4.8680 ha         1 XDA       0.117000
     45 H2           1.2000    -0.2310     4.6800 ha         1 XDA       0.141000
     46 H3           0.5890    -1.1610     2.4710 h1         1 XDA       0.094700
     47 H12          0.0400     1.6630     1.8120 hn         1 XDA       0.327500
     48 H16A        -3.4460     1.0020     4.4090 h1         1 XDA       0.051200
     49 H16B        -3.9560     0.1620     2.9380 h1         1 XDA       0.051200
     50 H22         -4.0630     3.3140     4.8070 ha         1 XDA       0.127500
     51 H21         -5.6980     5.1020     4.3670 ha         1 XDA       0.157500
     52 H18         -5.3040     1.2790     1.2620 ha         1 XDA       0.127500
     53 H19         -6.9450     3.0560     0.8030 ha         1 XDA       0.157500
     54 H25         -8.1000     4.4390     0.5500 hn         1 XDA       0.339500
     55 H26A        -8.6610     7.2040     0.8160 h1         1 XDA       0.033700
     56 H26B        -9.8780     6.3230     1.7510 h1         1 XDA       0.033700
     57 H27A        -9.2320     5.7870    -1.1700 h1         1 XDA       0.020200
     58 H27B       -10.5950     6.7640    -0.6090 h1         1 XDA       0.020200
@<TRIPOS>BOND
     1     4     3 1
     2     1     2 2
     3     3     2 1
     4     3     5 1
     5     2     6 1
     6    15    16 1
     7    15    13 1
     8    16    17 1
     9    12    13 1
    10    12    11 1
    11    10     9 2
    12    10    11 1
    13    18    17 ar
    14    18    19 ar
    15     9     8 1
    16     6    11 1
    17     6     7 1
    18    13    14 2
    19    17    20 ar
    20     7     8 1
    21    19    22 ar
    22    32    29 1
    23    20    21 ar
    24    22    21 ar
    25    22    23 1
    26    29    30 1
    27    29    28 1
    28    29    31 1
    29    24    23 2
    30    23    25 1
    31    28    27 1
    32    25    26 1
    33    26    27 1
    34     4    33 1
    35     4    34 1
    36     4    35 1
    37     5    36 1
    38     5    37 1
    39     5    38 1
    40     6    39 1
    41     7    40 1
    42     7    41 1
    43     8    42 1
    44     8    43 1
    45     9    44 1
    46    10    45 1
    47    11    46 1
    48    12    47 1
    49    16    48 1
    50    16    49 1
    51    18    50 1
    52    19    51 1
    53    20    52 1
    54    21    53 1
    55    25    54 1
    56    26    55 1
    57    26    56 1
    58    27    57 1
    59    27    58 1
@<TRIPOS>SUBSTRUCTURE
     1 XDA         1 TEMP              0 ****  ****    0 ROOT
