@<TRIPOS>MOLECULE
XDE
   26    26     1     0     0
SMALL
bcc


@<TRIPOS>ATOM
      1 C1           0.0000     0.0000     0.0000 ca         1 XDE      -0.128300
      2 C2           1.3820     0.0000     0.0000 ca         1 XDE      -0.126000
      3 C3           2.0750     0.0000     1.1990 ca         1 XDE       0.095100
      4 C4           1.3770    -0.0010     2.4040 ca         1 XDE       0.105100
      5 C5          -0.0090    -0.0000     2.3960 ca         1 XDE      -0.141000
      6 C6          -0.6950     0.0010     1.1960 ca         1 XDE      -0.064000
      7 O1           3.4350    -0.0010     1.2020 oh         1 XDE      -0.488100
      8 O2           2.0530    -0.0010     3.5830 oh         1 XDE      -0.489100
      9 O3          -1.8800     0.8780    -1.2010 oh         1 XDE      -0.571800
     10 C9          -2.3300    -2.7750    -3.2970 c3         1 XDE       0.179100
     11 C8          -1.2300    -1.4100    -1.6260 c3         1 XDE       0.128800
     12 C7          -0.7530     0.0070    -1.3060 c3         1 XDE       0.253400
     13 H1           1.9230     0.0000    -0.9380 ha         1 XDE       0.113000
     14 H2          -0.5550    -0.0000     3.3320 ha         1 XDE       0.114000
     15 H3          -1.7780     0.0010     1.1920 ha         1 XDE       0.122000
     16 H4           3.7490    -0.8530     0.9480 ho         1 XDE       0.403000
     17 H5           1.9660     0.8420     3.9960 ho         1 XDE       0.405000
     18 H6          -1.7080     1.6740    -1.6750 ho         1 XDE       0.390000
     19 H7          -2.7920    -2.7580    -4.2760 h1         1 XDE      -0.001633
     20 H8          -1.4960    -3.4660    -3.3030 h1         1 XDE      -0.001633
     21 H9          -3.0570    -3.0930    -2.5600 h1         1 XDE      -0.001633
     22 H10         -1.1970    -1.1200    -3.6400 hn         1 XDE       0.243800
     23 H12         -0.3840    -2.0860    -1.6180 h1         1 XDE       0.017700
     24 H13         -1.9520    -1.7250    -0.8820 h1         1 XDE       0.017700
     25 H14         -0.1000     0.3560    -2.0970 h1         1 XDE      -0.000300
     26 N1          -1.8580    -1.4270    -2.9540 n7         1 XDE      -0.575200
@<TRIPOS>BOND
     1     1     2 ar  
     2     1     6 ar  
     3     1    12 1   
     4     2     3 ar  
     5     2    13 1   
     6     3     4 ar  
     7     3     7 1   
     8     4     5 ar  
     9     4     8 1   
    10     5     6 ar  
    11     5    14 1   
    12     6    15 1   
    13     7    16 1   
    14     8    17 1   
    15     9    12 1   
    16     9    18 1   
    17    10    19 1   
    18    10    20 1   
    19    10    21 1   
    20    10    26 1   
    21    11    12 1   
    22    11    23 1   
    23    11    24 1   
    24    11    26 1   
    25    12    25 1   
    26    22    26 1   
@<TRIPOS>SUBSTRUCTURE
     1 XDE         1 TEMP              0 ****  ****    0 ROOT
