@<TRIPOS>MOLECULE
XDH
   33    32     1     0     0
SMALL
bcc


@<TRIPOS>ATOM
      1 CAA         0.2540   -0.4980    0.2540 c3        1 XDH     -0.213500
      2 CAB         1.9010    0.2870    1.9380 c3        1 XDH     -0.213500
      3 OAD         3.1480    4.6500   -2.9180 oh        1 XDH     -0.225000
      4 CLAE        2.6310   -4.6260    0.0560 cl        1 XDH      0.001000
      5 CLAF        2.2090   -3.0710   -5.0510 cl        1 XDH      0.024000
      6 CLAG        0.4500    3.3160   -3.0790 cl        1 XDH      0.040000
      7 CLAH        5.7380    3.4290   -1.8590 cl        1 XDH      0.031000
      8 CAI         2.5900   -2.0740   -0.5480 c1        1 XDH     -0.129000
      9 CAJ         1.3020   -1.6400   -3.0340 c1        1 XDH     -0.082000
     10 CAK         1.7600    1.4740   -1.6370 c2        1 XDH     -0.102000
     11 CAL         4.0350    1.7520   -0.7990 c1        1 XDH      0.177000
     12 CAM         2.6410   -3.6100   -2.4540 c2        1 XDH      0.163000
     13 CAN         3.0390    3.4270   -2.3120 c2        1 XDH      0.106000
     14 CAO         2.6190   -3.2980   -1.0230 c2        1 XDH     -0.096000
     15 CAP         2.0330   -2.7790   -3.3800 c2        1 XDH     -0.201000
     16 CAQ         1.8480    2.7660   -2.3120 c2        1 XDH     -0.159000
     17 CAR         4.1690    2.8110   -1.6160 c2        1 XDH     -0.366000
     18 CAS         2.7330   -0.8930   -0.0220 c2        1 XDH     -0.044000
     19 CAT         1.7950    1.3580   -0.2920 c2        1 XDH     -0.111000
     20 CAU         1.6630    0.0510    0.4430 c3        1 XDH      0.012000
     21 HAA        -0.0800   -0.3840   -0.8060 hc        1 XDH      0.089667
     22 HAAA       -0.4630    0.0630    0.9020 hc        1 XDH      0.089667
     23 HAAB        0.2190   -1.5770    0.5360 hc        1 XDH      0.089667
     24 HAB         1.1540    1.0180    2.3300 hc        1 XDH      0.089667
     25 HABA        1.7900   -0.6730    2.4950 hc        1 XDH      0.089667
     26 HABB        2.9260    0.6920    2.1110 hc        1 XDH      0.089667
     27 HOAC        3.8880   -5.0360   -2.1480 ho        1 XDH      0.238000
     28 HOAD        4.0920    4.8680   -2.9920 ho        1 XDH      0.232000
     29 HAI         3.7630   -0.4910    0.1200 ha        1 XDH      0.187000
     30 HAJ         0.7530   -1.6440   -2.0800 ha        1 XDH      0.064000
     31 HAK         1.6400    0.5960   -2.3080 ha        1 XDH      0.191000
     32 HAL         1.8340    2.2520    0.3570 ha        1 XDH      0.147000
     33 OAC         3.3770   -4.6680   -2.8900 oh        1 XDH     -0.207000
@<TRIPOS>BOND
     1    1   20 1   
     2    1   21 1   
     3    1   22 1   
     4    1   23 1   
     5    2   20 1   
     6    2   24 1   
     7    2   25 1   
     8    2   26 1   
     9    3   13 1   
    10    3   28 1   
    11    4   14 1   
    12    5   15 1   
    13    6   16 1   
    14    7   17 1   
    15    8   14 1   
    16    8   18 1   
    17    9   15 1   
    18    9   30 1   
    19   10   16 1   
    20   10   19 1   
    21   10   31 1   
    22   11   17 1   
    23   12   14 1   
    24   12   15 1   
    25   12   33 1   
    26   13   16 1   
    27   13   17 1   
    28   18   20 1   
    29   18   29 1   
    30   19   20 1   
    31   19   32 1   
    32   27   33 1   
@<TRIPOS>SUBSTRUCTURE
     1 XDH         1 TEMP              0 ****  ****    0 ROOT
