@<TRIPOS>MOLECULE
molecule
   33    34     1     0     0
SMALL
bcc


@<TRIPOS>ATOM
      1 CAA          0.0000     0.0000     0.0000 c3         1 XDH      -0.085100
      2 CAB          2.0400     0.0000     1.4420 c3         1 XDH      -0.085100
      3 OAD          3.4090     4.6070    -2.6450 oh         1 XDH      -0.499600
      4 ClAE         4.1540    -4.4890     0.2020 cl         1 XDH      -0.080900
      5 ClAF         1.8570    -2.7750    -4.3900 cl         1 XDH      -0.080900
      6 ClAG         0.4720     4.5370    -2.3190 cl         1 XDH      -0.080900
      7 ClAH         5.5500     2.7200    -1.8770 cl         1 XDH      -0.080900
      8 CAI          2.7700    -2.1730    -0.0190 ca         1 XDH      -0.107500
      9 CAJ          1.7540    -1.4140    -2.0520 ca         1 XDH      -0.107500
     10 CAK          1.1370     2.1950    -1.1370 ca         1 XDH      -0.107500
     11 CAL          3.3870     1.3940    -0.9340 ca         1 XDH      -0.107500
     12 CAM          2.9600    -3.4870    -2.0170 ca         1 XDH       0.116600
     13 CAN          2.9560     3.4960    -2.0050 ca         1 XDH       0.116600
     14 CAO          3.2320    -3.3030    -0.6680 ca         1 XDH       0.010400
     15 CAP          2.2140    -2.5420    -2.7070 ca         1 XDH       0.010400
     16 CAQ          1.5950     3.3270    -1.7840 ca         1 XDH       0.010400
     17 CAR          3.8500     2.5220    -1.5850 ca         1 XDH       0.010400
     18 CAS          2.0330    -1.2300    -0.7110 ca         1 XDH      -0.069800
     19 CAT          2.0320     1.2310    -0.7100 ca         1 XDH      -0.069800
     20 CAU          1.5300     0.0000     0.0000 c3         1 XDH       0.032600
     21 HAA         -0.3610     0.1060    -1.0160 hc         1 XDH       0.045367
     22 HAAA        -0.3610    -0.9330     0.4160 hc         1 XDH       0.045367
     23 HAAB        -0.3610     0.8270     0.6000 hc         1 XDH       0.045367
     24 HAB          3.1200    -0.0930     1.4440 hc         1 XDH       0.045367
     25 HABA         1.6050    -0.8340     1.9790 hc         1 XDH       0.045367
     26 HABB         1.7570     0.9270     1.9250 hc         1 XDH       0.045367
     27 HOAC         4.2670    -4.4250    -3.0200 ho         1 XDH       0.428500
     28 HOAD         3.5940     5.2800    -2.0120 ho         1 XDH       0.428500
     29 HAI          2.9870    -2.0260     1.0320 ha         1 XDH       0.156500
     30 HAJ          1.1760    -0.6740    -2.5910 ha         1 XDH       0.156500
     31 HAK          0.0760     2.0640    -0.9600 ha         1 XDH       0.156500
     32 HAL          4.0860     0.6370    -0.5980 ha         1 XDH       0.156500
     33 OAC          3.4130    -4.5970    -2.6580 oh         1 XDH      -0.499600
@<TRIPOS>BOND
     1     1    20 1
     2     1    21 1
     3     1    22 1
     4     1    23 1
     5     2    20 1
     6     2    24 1
     7     2    25 1
     8     2    26 1
     9    12    33 1
    10    33    27 1
    11     3    13 1
    12     3    28 1
    13    14     4 1
    14    15     5 1
    15     6    16 1
    16     7    17 1
    17    18     8 ar
    18     8    14 ar
    19     8    29 1
    20    18     9 ar
    21     9    15 ar
    22     9    30 1
    23    16    10 ar
    24    10    19 ar
    25    10    31 1
    26    17    11 ar
    27    11    19 ar
    28    11    32 1
    29    15    12 ar
    30    14    12 ar
    31    13    17 ar
    32    13    16 ar
    33    20    18 1
    34    19    20 1
@<TRIPOS>SUBSTRUCTURE
     1 XDH         1 TEMP              0 ****  ****    0 ROOT
