@<TRIPOS>MOLECULE
molecule
   33    34     1     0     0
SMALL
bcc


@<TRIPOS>ATOM
      1 CAA          0.0000     0.0000     0.0000 c3         1 XDI      -0.085100
      2 CAB          2.0400     0.0000     1.4430 c3         1 XDI      -0.085100
      3 OAD          3.4090     4.5950    -2.6650 oh         1 XDI      -0.500100
      4 BrAE         4.2280    -4.6000     0.2840 br         1 XDI      -0.066600
      5 BrAF         1.8350    -2.7920    -4.5410 br         1 XDI      -0.066600
      6 BrAG         5.7040     2.7420    -1.8900 br         1 XDI      -0.066600
      7 BrAH         0.3730     4.6470    -2.3640 br         1 XDI      -0.066600
      8 CAI          2.7670    -2.1740    -0.0170 ca         1 XDI      -0.078500
      9 CAJ          1.7580    -1.4130    -2.0530 ca         1 XDI      -0.078500
     10 CAK          3.3880     1.3950    -0.9320 ca         1 XDI      -0.078500
     11 CAL          1.1380     2.1940    -1.1380 ca         1 XDI      -0.078500
     12 CAM          2.9600    -3.4870    -2.0150 ca         1 XDI       0.151100
     13 CAN          2.9550     3.4850    -2.0240 ca         1 XDI       0.151100
     14 CAO          3.2290    -3.3040    -0.6660 ca         1 XDI      -0.044400
     15 CAP          2.2170    -2.5400    -2.7060 ca         1 XDI      -0.044400
     16 CAQ          3.8510     2.5190    -1.5880 ca         1 XDI      -0.044400
     17 CAR          1.5960     3.3230    -1.7900 ca         1 XDI      -0.044400
     18 CAS          2.0330    -1.2300    -0.7100 ca         1 XDI      -0.085300
     19 CAT          2.0330     1.2300    -0.7090 ca         1 XDI      -0.085300
     20 CAU          1.5300     0.0000     0.0000 c3         1 XDI       0.032600
     21 HAA         -0.3610     0.8280     0.5990 hc         1 XDI       0.046033
     22 HAAA        -0.3610     0.1050    -1.0160 hc         1 XDI       0.046033
     23 HAAB        -0.3610    -0.9320     0.4170 hc         1 XDI       0.046033
     24 HAB          1.6030    -0.8330     1.9800 hc         1 XDI       0.046033
     25 HABA         1.7580     0.9280     1.9250 hc         1 XDI       0.046033
     26 HABB         3.1190    -0.0950     1.4450 hc         1 XDI       0.046033
     27 HOAC         4.2710    -4.4280    -3.0090 ho         1 XDI       0.432000
     28 HOAD         3.4270     4.4360    -3.5940 ho         1 XDI       0.432000
     29 HAI          2.9800    -2.0290     1.0350 ha         1 XDI       0.155750
     30 HAJ          1.1830    -0.6710    -2.5930 ha         1 XDI       0.155750
     31 HAK          4.0870     0.6380    -0.5950 ha         1 XDI       0.155750
     32 HAL          0.0770     2.0630    -0.9630 ha         1 XDI       0.155750
     33 OAC          3.4130    -4.5980    -2.6560 oh         1 XDI      -0.500100
@<TRIPOS>BOND
     1     1    20 1
     2     1    21 1
     3     1    22 1
     4     1    23 1
     5     2    20 1
     6     2    24 1
     7     2    25 1
     8     2    26 1
     9    12    33 1
    10    33    27 1
    11     3    13 1
    12     3    28 1
    13    14     4 1
    14    15     5 1
    15     6    16 1
    16     7    17 1
    17    18     8 ar
    18     8    14 ar
    19     8    29 1
    20    18     9 ar
    21     9    15 ar
    22     9    30 1
    23    16    10 ar
    24    10    19 ar
    25    10    31 1
    26    17    11 ar
    27    11    19 ar
    28    11    32 1
    29    14    12 ar
    30    15    12 ar
    31    13    17 ar
    32    13    16 ar
    33    20    18 1
    34    19    20 1
@<TRIPOS>SUBSTRUCTURE
     1 XDI         1 TEMP              0 ****  ****    0 ROOT
