@<TRIPOS>MOLECULE
XDI
   33    33     1     0     0
SMALL
bcc


@<TRIPOS>ATOM
      1 CAA         0.6010   -1.1180    1.1080 c3        1 XDI     -0.214500
      2 CAB         2.0460    0.7350    1.8680 c3        1 XDI     -0.214500
      3 OAD         4.3030    3.8570   -2.7370 oh        1 XDI     -0.205000
      4 BRAE        2.6200   -4.7890   -0.6840 br        1 XDI      0.089000
      5 BRAF        2.3340   -2.1260   -5.4130 br        1 XDI      0.082000
      6 BRAG        4.7140    1.7370   -0.2180 br        1 XDI      0.068000
      7 BRAH        1.5560    4.1650   -4.4280 br        1 XDI      0.118000
      8 CAI         2.9120   -2.0200   -0.4870 c1        1 XDI     -0.090000
      9 CAJ         0.9580   -1.6930   -3.0370 c1        1 XDI     -0.073000
     10 CAK         1.9230    1.5300   -1.2560 c2        1 XDI     -0.027000
     11 CAL         1.1830    2.1810   -2.3760 c2        1 XDI     -0.058000
     12 CAM         3.0740   -2.8950   -2.7620 c2        1 XDI      0.229000
     13 CAN         3.2990    3.0520   -2.3200 c2        1 XDI      0.152000
     14 CAO         2.9050   -3.0380   -1.3040 c2        1 XDI     -0.220000
     15 CAP         2.1230   -2.2770   -3.5500 c2        1 XDI     -0.312000
     16 CAQ         3.2710    2.1270   -1.2920 c2        1 XDI     -0.341000
     17 CAR         1.9870    3.0900   -3.0010 c2        1 XDI     -0.210000
     18 CAS         2.9420   -1.0140    0.3400 c2        1 XDI     -0.048000
     19 CAT         1.2930    0.6200   -0.4980 c2        1 XDI     -0.082000
     20 CAU         1.7390   -0.1800    0.6860 c3        1 XDI      0.012000
     21 HAA         0.3310   -1.8050    0.2710 hc        1 XDI      0.089167
     22 HAAA       -0.2990   -0.5230    1.3910 hc        1 XDI      0.089167
     23 HAAB        0.9180   -1.7280    1.9870 hc        1 XDI      0.089167
     24 HAB         1.1230    1.2940    2.1580 hc        1 XDI      0.089167
     25 HABA        2.8410    1.4730    1.6090 hc        1 XDI      0.089167
     26 HABB        2.3850    0.1270    2.7410 hc        1 XDI      0.089167
     27 HOAC        4.8050   -3.7040   -2.6060 ho        1 XDI      0.241000
     28 HOAD        5.0860    3.6750   -2.1900 ho        1 XDI      0.236000
     29 HAI         3.8910   -0.7270    0.8300 ha        1 XDI      0.174000
     30 HAJ         0.6790   -1.9250   -1.9960 ha        1 XDI      0.040000
     31 HAK         0.2400    0.4010   -0.7820 ha        1 XDI      0.145000
     32 HAL         0.1520    1.9180   -2.6240 ha        1 XDI      0.173000
     33 OAC         4.2260   -3.3600   -3.3080 oh        1 XDI     -0.200000
@<TRIPOS>BOND
     1    1   20 1   
     2    1   21 1   
     3    1   22 1   
     4    1   23 1   
     5    2   20 1   
     6    2   24 1   
     7    2   25 1   
     8    2   26 1   
     9    3   13 1   
    10    3   28 1   
    11    4   14 1   
    12    5   15 1   
    13    6   16 1   
    14    7   17 1   
    15    8   14 1   
    16    8   18 1   
    17    9   15 1   
    18    9   30 1   
    19   10   11 1   
    20   10   16 1   
    21   10   19 1   
    22   11   17 1   
    23   11   32 1   
    24   12   14 1   
    25   12   15 1   
    26   12   33 1   
    27   13   16 1   
    28   13   17 1   
    29   18   20 1   
    30   18   29 1   
    31   19   20 1   
    32   19   31 1   
    33   27   33 1   
@<TRIPOS>SUBSTRUCTURE
     1 XDI         1 TEMP              0 ****  ****    0 ROOT
