@<TRIPOS>MOLECULE
XDK
   21    22     1     0     0
SMALL
bcc


@<TRIPOS>ATOM
      1 C7A          0.0000     0.0000     0.0000 ca         1 XDK      -0.230300
      2 C3A          1.3840     0.0000     0.0000 ca         1 XDK       0.416200
      3 N2A          2.0630     0.0000     1.1300 nb         1 XDK      -0.586000
      4 C1A          1.4630    -0.0020     2.3030 ca         1 XDK       0.418200
      5 C5A          0.0720    -0.0010     2.3880 cp         1 XDK      -0.285800
      6 C4          -0.6030    -0.0030     3.7080 cp         1 XDK       0.487800
      7 N3          -1.9270    -0.1030     3.7900 nb         1 XDK      -0.625000
      8 C5           0.1430     0.0960     4.8860 ca         1 XDK      -0.349600
      9 C6          -0.5300     0.0900     6.0950 ca         1 XDK       0.451200
     10 N1          -1.8510    -0.0070     6.1000 nb         1 XDK      -0.632000
     11 C2          -2.5310    -0.1040     4.9680 ca         1 XDK       0.716900
     12 N7          -3.9120    -0.2100     5.0180 nv         1 XDK      -0.640500
     13 C9          -0.6770    -0.0010     1.2070 ca         1 XDK      -0.027000
     14 H7A         -0.5470     0.0000    -0.9350 ha         1 XDK       0.116000
     15 H3A          1.9170     0.0010    -0.9430 h4         1 XDK      -0.020900
     16 H9          -1.7600    -0.0010     1.2360 ha         1 XDK       0.130000
     17 H1A          2.0560    -0.0020     3.2100 h4         1 XDK      -0.015900
     18 H5           1.2230     0.1740     4.8540 ha         1 XDK       0.131000
     19 H6           0.0170     0.1670     7.0270 h4         1 XDK      -0.015900
     20 H71N        -4.4770     0.6160     5.0350 hn         1 XDK       0.280800
     21 H72N        -4.3440    -1.1130     5.0460 hn         1 XDK       0.280800
@<TRIPOS>BOND
     1     1     2 ar  
     2     1    13 ar  
     3     1    14 1   
     4     2     3 ar  
     5     2    15 1   
     6     3     4 ar  
     7     4     5 ar  
     8     4    17 1   
     9     5     6 1   
    10     5    13 ar  
    11     6     7 ar  
    12     6     8 ar  
    13     7    11 ar  
    14     8     9 ar  
    15     8    18 1   
    16     9    10 ar  
    17     9    19 1   
    18    10    11 ar  
    19    11    12 1   
    20    12    20 1   
    21    12    21 1   
    22    13    16 1   
@<TRIPOS>SUBSTRUCTURE
     1 XDK         1 TEMP              0 ****  ****    0 ROOT
