@<TRIPOS>MOLECULE
molecule
   17    17     1     0     0
SMALL
bcc


@<TRIPOS>ATOM
      1 N1           0.0000     0.0000     0.0000 ns         1 XDL      -0.574900
      2 C2           1.3320     0.0000     0.0000 c          1 XDL       0.690500
      3 C3           2.1620     0.0000     1.2500 c3         1 XDL       0.086100
      4 O3           3.2570     0.9040     1.0930 oh         1 XDL      -0.576800
      5 C4           1.3080     0.4390     2.4410 c3         1 XDL      -0.098400
      6 C5           0.0040    -0.3680     2.4250 c3         1 XDL      -0.098400
      7 C6          -0.8160     0.0520     1.2060 c3         1 XDL       0.103000
      8 O2           1.9060    -0.0040    -1.0680 o          1 XDL      -0.640500
      9 H1          -0.4690    -0.0380    -0.8830 hn         1 XDL       0.327500
     10 H3           2.5380    -1.0000     1.4290 h1         1 XDL       0.055700
     11 HA           4.0690     0.4340     1.1890 ho         1 XDL       0.410000
     12 H4C1         1.8430     0.2450     3.3630 hc         1 XDL       0.060200
     13 H4C2         1.0830     1.4950     2.3580 hc         1 XDL       0.060200
     14 H5C1         0.2320    -1.4250     2.3630 hc         1 XDL       0.054700
     15 H5C2        -0.5600    -0.1640     3.3280 hc         1 XDL       0.054700
     16 H6C1        -1.1760     1.0630     1.3490 h1         1 XDL       0.043200
     17 H6C2        -1.6580    -0.6210     1.0950 h1         1 XDL       0.043200
@<TRIPOS>BOND
     1     1     2 1
     2     1     7 1
     3     1     9 1
     4     2     3 1
     5     2     8 2
     6     3     4 1
     7     3     5 1
     8     3    10 1
     9     4    11 1
    10     5     6 1
    11     5    12 1
    12     5    13 1
    13     6     7 1
    14     6    14 1
    15     6    15 1
    16     7    16 1
    17     7    17 1
@<TRIPOS>SUBSTRUCTURE
     1 XDL         1 TEMP              0 ****  ****    0 ROOT
