@<TRIPOS>MOLECULE
XDM
   41    42     1     0     0
SMALL
bcc


@<TRIPOS>ATOM
      1 N1           0.0000     0.0000     0.0000 ns         1 XDM      -0.213900
      2 C2           3.7140     0.0000     2.7970 cc         1 XDM      -0.266600
      3 C3           5.0390    -0.0050     3.4230 c          1 XDM       0.670700
      4 C4           5.7100     1.2970     3.7780 c3         1 XDM      -0.089100
      5 C5           3.4380     0.0000     1.4090 cc         1 XDM      -0.004300
      6 C6           4.4520     0.0000     0.2930 c3         1 XDM       0.038900
      7 C9           1.3480     0.0000     0.0000 c          1 XDM       0.641700
      8 C8           2.0830    -0.0000     1.2710 cd         1 XDM      -0.425900
      9 C10         -0.7330    -0.0010    -1.2680 c3         1 XDM       0.117300
     10 C11         -2.2150    -0.0000    -0.9920 ca         1 XDM      -0.118300
     11 C12         -2.8940     1.1970    -0.8650 ca         1 XDM      -0.085000
     12 C13         -4.2530     1.1980    -0.6120 ca         1 XDM      -0.091000
     13 C14         -4.9330     0.0010    -0.4850 ca         1 XDM      -0.091000
     14 C15         -4.2540    -1.1970    -0.6120 ca         1 XDM      -0.037600
     15 O1           1.9550    -0.0000    -1.0540 o          1 XDM      -0.638100
     16 C7           4.7950    -1.4430    -0.0840 c3         1 XDM       0.011900
     17 O            5.5950    -1.0580     3.6560 o          1 XDM      -0.557100
     18 C            2.4910     0.0000     3.4510 cd         1 XDM      -0.271600
     19 C1           2.2910    -0.0060     4.9460 c3         1 XDM       0.101200
     20 N            1.5180     0.0000     2.5290 na         1 XDM       0.440900
     21 C16         -2.8950    -1.1970    -0.8710 ca         1 XDM      -0.084000
     22 Cl          -5.1080    -2.7010    -0.4510 cl         1 XDM      -0.018400
     23 H12         -0.5000    -0.0200     0.8670 hn         1 XDM       0.165500
     24 H4           5.0900     2.1230     3.4520 hc         1 XDM       0.023367
     25 H6           5.8480     1.3510     4.8510 hc         1 XDM       0.023367
     26 H5           6.6740     1.3520     3.2870 hc         1 XDM       0.023367
     27 H7           5.3500     0.5100     0.6210 hc         1 XDM       0.029200
     28 H8           4.0410     0.5110    -0.5690 hc         1 XDM       0.029200
     29 H14         -0.4720    -0.8860    -1.8350 h1         1 XDM       0.032200
     30 H13         -0.4710     0.8830    -1.8360 h1         1 XDM       0.032200
     31 H15         -2.3620     2.1350    -0.9650 ha         1 XDM       0.111000
     32 H16         -4.7850     2.1370    -0.5130 ha         1 XDM       0.109000
     33 H17         -5.9980     0.0010    -0.2840 ha         1 XDM       0.116000
     34 H11          4.7010    -1.5670    -1.1570 hc         1 XDM       0.004367
     35 H9           5.8120    -1.6630     0.2170 hc         1 XDM       0.004367
     36 H10          4.1140    -2.1190     0.4180 hc         1 XDM       0.004367
     37 H1           2.9340    -0.7540     5.3930 hc         1 XDM       0.011367
     38 H2           2.5390     0.9700     5.3470 hc         1 XDM       0.011367
     39 H3           1.2570    -0.2370     5.1710 hc         1 XDM       0.011367
     40 H            0.5370    -0.0000     2.7230 hn         1 XDM       0.105700
     41 H18         -2.3630    -2.1360    -0.9710 ha         1 XDM       0.121000
@<TRIPOS>BOND
     1     1     7 1   
     2     1     9 1   
     3     1    23 1   
     4     2     3 1   
     5     2     5 1   
     6     2    18 2   
     7     3     4 1   
     8     3    17 2   
     9     4    24 1   
    10     4    25 1   
    11     4    26 1   
    12     5     6 1   
    13     5     8 2   
    14     6    16 1   
    15     6    27 1   
    16     6    28 1   
    17     7     8 1   
    18     7    15 2   
    19     8    20 1   
    20     9    10 1   
    21     9    29 1   
    22     9    30 1   
    23    10    11 ar  
    24    10    21 ar  
    25    11    12 ar  
    26    11    31 1   
    27    12    13 ar  
    28    12    32 1   
    29    13    14 ar  
    30    13    33 1   
    31    14    21 ar  
    32    14    22 1   
    33    16    34 1   
    34    16    35 1   
    35    16    36 1   
    36    18    19 1   
    37    18    20 1   
    38    19    37 1   
    39    19    38 1   
    40    19    39 1   
    41    20    40 1   
    42    21    41 1   
@<TRIPOS>SUBSTRUCTURE
     1 XDM         1 TEMP              0 ****  ****    0 ROOT
