@<TRIPOS>MOLECULE
XDN
   20    20     1     0     0
SMALL
bcc


@<TRIPOS>ATOM
      1 C1           0.0000     0.0000     0.0000 c3         1 XDN       0.119300
      2 C2           1.5310     0.0000     0.0000 c3         1 XDN       0.175600
      3 O2           2.0080    -1.1670    -0.6710 oh         1 XDN      -0.583800
      4 C3           2.0360     0.0000     1.4470 c3         1 XDN       0.169100
      5 O3           3.4630     0.0580     1.4530 oh         1 XDN      -0.581800
      6 C4           1.4710     1.2220     2.1750 c3         1 XDN       0.175600
      7 O4           1.8920     1.2000     3.5410 oh         1 XDN      -0.583800
      8 C5          -0.0580     1.1870     2.1120 c3         1 XDN       0.119300
      9 N5          -0.4910     1.1880     0.7090 n7         1 XDN      -0.575200
     10 H11         -0.3590     0.0170    -1.0220 h1         1 XDN       0.014950
     11 H12         -0.3600    -0.8910     0.5000 h1         1 XDN       0.014950
     12 H2           1.8900     0.8870    -0.5070 h1         1 XDN       0.020700
     13 HO2          2.2980    -0.9350    -1.5380 ho         1 XDN       0.394000
     14 H3           1.7030    -0.9020     1.9450 h1         1 XDN       0.019700
     15 HO3          3.8080    -0.7170     1.8640 ho         1 XDN       0.398000
     16 H4           1.8300     2.1250     1.6960 h1         1 XDN       0.020700
     17 HO4          2.2270     2.0480     3.7800 ho         1 XDN       0.394000
     18 H51         -0.4170     0.2880     2.5980 h1         1 XDN       0.014950
     19 H52         -0.4590     2.0590     2.6130 h1         1 XDN       0.014950
     20 HN5         -1.4910     1.2110     0.6680 hn         1 XDN       0.256800
@<TRIPOS>BOND
     1     1     2 1   
     2     1     9 1   
     3     1    10 1   
     4     1    11 1   
     5     2     3 1   
     6     2     4 1   
     7     2    12 1   
     8     3    13 1   
     9     4     5 1   
    10     4     6 1   
    11     4    14 1   
    12     5    15 1   
    13     6     7 1   
    14     6     8 1   
    15     6    16 1   
    16     7    17 1   
    17     8     9 1   
    18     8    18 1   
    19     8    19 1   
    20     9    20 1   
@<TRIPOS>SUBSTRUCTURE
     1 XDN         1 TEMP              0 ****  ****    0 ROOT
