@<TRIPOS>MOLECULE
molecule
   21    22     1     0     0
SMALL
bcc


@<TRIPOS>ATOM
      1 O4           0.0000     0.0000     0.0000 o          1 XDS      -0.564500
      2 C4           1.2170     0.0000     0.0000 c          1 XDS       0.861900
      3 N2           1.8400     0.0000     1.1890 ns         1 XDS      -0.598500
      4 C3           3.1650    -0.2810     1.2870 c          1 XDS       0.699500
      5 O3           3.7480    -0.2830     2.3500 o          1 XDS      -0.551500
      6 N3           1.8430    -0.0060    -1.1870 ne         1 XDS      -0.666100
      7 C5           3.1310    -0.1030    -1.2690 c2         1 XDS       0.598900
      8 N            4.1490     0.1190    -2.1340 n          1 XDS      -0.376300
      9 C            4.0590     0.0340    -3.5940 c3         1 XDS       0.116300
     10 C2           3.8630    -0.5890    -0.0160 c3         1 XDS       0.083900
     11 O1           4.1070    -1.9940    -0.1120 os         1 XDS      -0.220800
     12 O2           4.8400    -2.5530     1.0320 oh         1 XDS      -0.385000
     13 N1           5.1220     0.1570    -0.1130 ns         1 XDS      -0.591900
     14 C1           5.2610     0.4320    -1.4340 c          1 XDS       0.823500
     15 O            6.2660     0.9040    -1.9290 o          1 XDS      -0.604500
     16 H2           1.3190     0.2100     2.0170 hn         1 XDS       0.361500
     17 HC1          3.1210    -0.4310    -3.8710 h1         1 XDS       0.065033
     18 HC2          4.8820    -0.5590    -3.9730 h1         1 XDS       0.065033
     19 HC3          4.1070     1.0300    -4.0170 h1         1 XDS       0.065033
     20 H1           5.8010     0.2970     0.6090 hn         1 XDS       0.390500
     21 H3           4.9430    -3.4830     0.9160 ho         1 XDS       0.427000
@<TRIPOS>BOND
     1     1     2 2
     2     2     3 1
     3     2     6 1
     4     3     4 1
     5     4     5 2
     6     4    10 1
     7     6     7 2
     8     7     8 1
     9     7    10 1
    10     8     9 1
    11     8    14 1
    12    10    11 1
    13    10    13 1
    14    11    12 1
    15    13    14 1
    16    14    15 2
    17     3    16 1
    18     9    17 1
    19     9    18 1
    20     9    19 1
    21    13    20 1
    22    12    21 1
@<TRIPOS>SUBSTRUCTURE
     1 XDS         1 TEMP              0 ****  ****    0 ROOT
