@<TRIPOS>MOLECULE
molecule
   36    36     1     0     0
SMALL
bcc


@<TRIPOS>ATOM
      1 OAN          0.0000     0.0000     0.0000 o          1 XDX      -0.937167
      2 PAL          1.6100     0.0000     0.0000 p5         1 XDX       1.225900
      3 OAO          2.1470     0.0000     1.5180 o          1 XDX      -0.937167
      4 OAP          2.1030    -1.2090    -0.6970 o          1 XDX      -0.937167
      5 OAM          2.1470     1.3140    -0.7600 os         1 XDX      -0.561200
      6 CAQ          1.9290     1.5520    -2.1520 c3         1 XDX       0.250400
      7 CAR          2.5680     2.8840    -2.5470 c3         1 XDX       0.018100
      8 CAS          4.0240     2.8790    -2.1590 c          1 XDX       0.907600
      9 OAV          4.8730     2.0220    -2.7490 o          1 XDX      -0.866800
     10 OAU          4.4280     3.6450    -1.3170 o          1 XDX      -0.866800
     11 O1           1.8990     3.9520    -1.8720 os         1 XDX      -0.368600
     12 C1           1.8970     5.1850    -2.5940 c3         1 XDX       0.317900
     13 O5           1.0420     5.0680    -3.7330 os         1 XDX      -0.454600
     14 C5          -0.3120     4.7390    -3.4160 c3         1 XDX       0.147100
     15 C6          -1.1220     4.6120    -4.7070 c3         1 XDX       0.151400
     16 O6          -0.6340     3.5070    -5.4710 oh         1 XDX      -0.567800
     17 C4          -0.9120     5.8420    -2.5420 c3         1 XDX       0.110100
     18 O4          -2.2470     5.4880    -2.1740 oh         1 XDX      -0.593800
     19 C3          -0.0610     6.0040    -1.2790 c3         1 XDX       0.111100
     20 O3          -0.5720     7.0820    -0.4920 oh         1 XDX      -0.648800
     21 C2           1.3850     6.3070    -1.6870 c3         1 XDX       0.128100
     22 O2           2.2040     6.3880    -0.5180 oh         1 XDX      -0.536800
     23 H3           0.8650     1.5890    -2.3500 h1         1 XDX       0.007200
     24 H4           2.3760     0.7520    -2.7290 h1         1 XDX       0.007200
     25 H5           2.4800     3.0230    -3.6180 h1         1 XDX       0.003700
     26 H7           2.9030     5.4190    -2.9210 h2         1 XDX       0.089700
     27 H8          -0.3360     3.8000    -2.8760 h1         1 XDX       0.127700
     28 H9          -1.0230     5.5230    -5.2860 h1         1 XDX       0.004700
     29 H10         -2.1650     4.4500    -4.4640 h1         1 XDX       0.004700
     30 H11         -1.1390     3.4240    -6.2620 ho         1 XDX       0.369000
     31 H12         -0.9190     6.7750    -3.0930 h1         1 XDX       0.011700
     32 H13         -2.8100     6.2380    -2.2720 ho         1 XDX       0.376000
     33 H14         -0.0880     5.0850    -0.7050 h1         1 XDX       0.125700
     34 H15         -0.8170     6.7600     0.3600 ho         1 XDX       0.407000
     35 H16          1.4180     7.2470    -2.2230 h1         1 XDX       0.005700
     36 H17          2.5820     7.2500    -0.4580 ho         1 XDX       0.368000
@<TRIPOS>BOND
     1    16    15 1
     2    15    14 1
     3    13    14 1
     4    13    12 1
     5    14    17 1
     6    17    18 1
     7    17    19 1
     8    12    21 1
     9    12    11 1
    10    21    19 1
    11    21    22 1
    12    10     8 1
    13    19    20 1
    14     8     7 1
    15     8     9 1
    16    11     7 1
    17     7     6 1
    18     6     5 1
    19     5     2 1
    20     4     2 1
    21     2     3 1
    22     2     1 1
    23     6    23 1
    24     6    24 1
    25     7    25 1
    26    12    26 1
    27    14    27 1
    28    15    28 1
    29    15    29 1
    30    16    30 1
    31    17    31 1
    32    18    32 1
    33    19    33 1
    34    20    34 1
    35    21    35 1
    36    22    36 1
@<TRIPOS>SUBSTRUCTURE
     1 XDX         1 TEMP              0 ****  ****    0 ROOT
