@<TRIPOS>MOLECULE
XE4
   63    65     1     0     0
SMALL
bcc


@<TRIPOS>ATOM
      1 C1          0.0110    0.2420   -0.0890 c3        1 XE4     -0.036200
      2 C2          1.4050    0.7170    0.3160 c3        1 XE4      0.146100
      3 C3          1.4560    1.0280    1.8060 c3        1 XE4     -0.146400
      4 C4          1.0840   -0.1990    2.6330 c3        1 XE4      0.186300
      5 C5         -0.2180   -0.8060    2.1710 ce        1 XE4     -0.070200
      6 C6         -0.4070   -0.9350    0.7270 ce        1 XE4     -0.070200
      7 C7         -0.9390   -2.0210    0.1280 cf        1 XE4     -0.111000
      8 C8         -1.3450   -3.2270    0.8100 cf        1 XE4     -0.145000
      9 C9         -2.2400   -4.1210    0.3570 c2        1 XE4     -0.085400
     10 C10        -1.1430   -1.1770    3.0650 c2        1 XE4     -0.192000
     11 O1          1.6710    1.8820   -0.4560 oh        1 XE4     -0.599800
     12 O2          2.0800   -1.2140    2.5420 oh        1 XE4     -0.589800
     13 C11        -2.6070   -5.3550    1.1010 c3        1 XE4     -0.034500
     14 C12        -2.4090   -6.6080    0.2080 c3        1 XE4     -0.037000
     15 C13        -3.3730   -6.5000   -0.9600 c3        1 XE4     -0.067400
     16 C14        -3.1120   -5.2260   -1.7440 c3        1 XE4     -0.073400
     17 C15        -3.0490   -3.9690   -0.8900 c3        1 XE4     -0.044200
     18 C16        -1.9250   -5.7250    2.4110 c3        1 XE4     -0.075400
     19 C17        -2.1600   -7.2300    2.5630 c3        1 XE4     -0.072400
     20 C18        -2.7160   -7.7440    1.2150 c3        1 XE4      0.011400
     21 C19        -2.1800   -9.0190    0.8470 c1        1 XE4     -0.070100
     22 C20        -1.7600  -10.1040    0.5510 cg        1 XE4     -0.067000
     23 C21        -1.2860  -11.3250    0.2130 cg        1 XE4     -0.024000
     24 C22        -0.8570  -12.4060   -0.0770 c1        1 XE4     -0.093100
     25 C23        -0.3340  -13.7120   -0.4230 c3        1 XE4      0.240900
     26 C24        -0.4650  -14.6690    0.7640 c3        1 XE4     -0.121100
     27 O3         -1.1180  -14.1990   -1.5220 oh        1 XE4     -0.587800
     28 C25         1.1330  -13.6020   -0.8490 c3        1 XE4     -0.121100
     29 C26        -0.9790   -6.7330   -0.2890 c3        1 XE4     -0.085100
     30 H11A       -0.7200    1.0820    0.0610 hc        1 XE4      0.062700
     31 H12         0.0170   -0.0030   -1.1840 hc        1 XE4      0.062700
     32 H2          2.1660   -0.0790    0.0740 h1        1 XE4      0.048700
     33 H31         2.4860    1.3710    2.0850 hc        1 XE4      0.053200
     34 H32         0.7430    1.8600    2.0380 hc        1 XE4      0.053200
     35 H4          0.9940    0.1120    3.7160 h1        1 XE4      0.034700
     36 H7         -1.0480   -2.0200   -0.9720 ha        1 XE4      0.125000
     37 H8         -0.8440   -3.4050    1.7820 ha        1 XE4      0.137000
     38 H101       -2.1120   -1.5960    2.7640 ha        1 XE4      0.120000
     39 H102       -0.9870   -1.0770    4.1470 ha        1 XE4      0.120000
     40 HO1         2.5580    2.1750   -0.2170 ho        1 XE4      0.398000
     41 HO2         2.9180   -0.7980    2.7740 ho        1 XE4      0.396000
     42 H11        -3.7150   -5.2700    1.3210 hc        1 XE4      0.053700
     43 H131       -3.2570   -7.3860   -1.6370 hc        1 XE4      0.045200
     44 H132       -4.4280   -6.5010   -0.5800 hc        1 XE4      0.045200
     45 H141       -3.9230   -5.0970   -2.5090 hc        1 XE4      0.042200
     46 H142       -4.0930   -3.6840   -0.5830 hc        1 XE4      0.047700
     47 H151       -2.6540   -3.1310   -1.5230 hc        1 XE4      0.047700
     48 H152       -2.1450   -5.3350   -2.3040 hc        1 XE4      0.042200
     49 H161       -2.3580   -5.1570    3.2690 hc        1 XE4      0.049700
     50 H162       -0.8290   -5.5050    2.3690 hc        1 XE4      0.049700
     51 H171       -2.8950   -7.4400    3.3780 hc        1 XE4      0.050200
     52 H172       -1.2050   -7.7490    2.8200 hc        1 XE4      0.050200
     53 H18        -3.8380   -7.8480    1.2980 hc        1 XE4      0.070700
     54 H241        0.0770  -14.2590    1.6480 hc        1 XE4      0.049533
     55 H242       -1.5420  -14.8060    1.0250 hc        1 XE4      0.049533
     56 H243       -0.0300  -15.6620    0.4980 hc        1 XE4      0.049533
     57 HO3        -0.7590  -15.0660   -1.7430 ho        1 XE4      0.402000
     58 H251        1.2170  -12.9630   -1.7600 hc        1 XE4      0.049533
     59 H252        1.5350  -14.6170   -1.0810 hc        1 XE4      0.049533
     60 H253        1.7360  -13.1500   -0.0280 hc        1 XE4      0.049533
     61 H261       -0.6490   -5.7870   -0.7810 hc        1 XE4      0.042033
     62 H262       -0.2890   -6.9440    0.5640 hc        1 XE4      0.042033
     63 H263       -0.9020   -7.5700   -1.0250 hc        1 XE4      0.042033
@<TRIPOS>BOND
     1    1    2 1   
     2    1    6 1   
     3    1   30 1   
     4    1   31 1   
     5    2    3 1   
     6    2   11 1   
     7    2   32 1   
     8    3    4 1   
     9    3   33 1   
    10    3   34 1   
    11    4    5 1   
    12    4   12 1   
    13    4   35 1   
    14    5    6 1   
    15    5   10 2   
    16    6    7 2   
    17    7    8 1   
    18    7   36 1   
    19    8    9 2   
    20    8   37 1   
    21    9   13 1   
    22    9   17 1   
    23   10   38 1   
    24   10   39 1   
    25   11   40 1   
    26   12   41 1   
    27   13   14 1   
    28   13   18 1   
    29   13   42 1   
    30   14   15 1   
    31   14   20 1   
    32   14   29 1   
    33   15   16 1   
    34   15   43 1   
    35   15   44 1   
    36   16   17 1   
    37   16   45 1   
    38   16   48 1   
    39   17   46 1   
    40   17   47 1   
    41   18   19 1   
    42   18   49 1   
    43   18   50 1   
    44   19   20 1   
    45   19   51 1   
    46   19   52 1   
    47   20   21 1   
    48   20   53 1   
    49   21   22 3   
    50   22   23 1   
    51   23   24 3   
    52   24   25 1   
    53   25   26 1   
    54   25   27 1   
    55   25   28 1   
    56   26   54 1   
    57   26   55 1   
    58   26   56 1   
    59   27   57 1   
    60   28   58 1   
    61   28   59 1   
    62   28   60 1   
    63   29   61 1   
    64   29   62 1   
    65   29   63 1   
@<TRIPOS>SUBSTRUCTURE
     1 XE4         1 TEMP              0 ****  ****    0 ROOT
