@<TRIPOS>MOLECULE
molecule
   63    65     1     0     0
SMALL
bcc


@<TRIPOS>ATOM
      1 C1           0.0000     0.0000     0.0000 c3         1 XE4      -0.037200
      2 C2           1.5320     0.0000     0.0000 c3         1 XE4       0.146100
      3 C3           2.0500     0.0000     1.4390 c3         1 XE4      -0.124400
      4 C4           1.6790    -1.3190     2.1250 c3         1 XE4       0.181300
      5 C5           0.1680    -1.4760     2.0720 ce         1 XE4      -0.111200
      6 C6          -0.4780    -1.2160     0.7680 ce         1 XE4      -0.119200
      7 C7          -1.4500    -2.0200     0.2880 cf         1 XE4      -0.288000
      8 C8          -1.8840    -3.1860     1.0610 cf         1 XE4      -0.250000
      9 C9          -2.8440    -3.9790     0.5870 c2         1 XE4      -0.030400
     10 C10         -0.5350    -1.8350     3.1460 c2         1 XE4      -0.219000
     11 O1           2.0080     1.1670    -0.6740 oh         1 XE4      -0.593800
     12 O2           2.3040    -2.4090     1.4430 oh         1 XE4      -0.552800
     13 C11         -3.3300    -5.1860     1.3330 c3         1 XE4      -0.058500
     14 C12         -3.1140    -6.3960     0.3780 c3         1 XE4      -0.004000
     15 C13         -4.0230    -6.2130    -0.8090 c3         1 XE4      -0.224400
     16 C14         -3.5310    -4.9920    -1.6040 c3         1 XE4      -0.087400
     17 C15         -3.5260    -3.7240    -0.7500 c3         1 XE4      -0.012200
     18 C16         -2.5120    -5.6160     2.5530 c3         1 XE4      -0.203400
     19 C17         -2.8730    -7.1210     2.6950 c3         1 XE4      -0.143400
     20 C18         -3.3230    -7.5970     1.2890 c3         1 XE4       0.086400
     21 C19         -2.4950    -8.7280     0.8420 c1         1 XE4      -0.121100
     22 C20         -1.8180    -9.6190     0.4860 cg         1 XE4      -0.035000
     23 C21         -0.9490   -10.6170    -0.0840 cg         1 XE4      -0.057000
     24 C22         -0.3440   -11.6070    -0.2630 c1         1 XE4      -0.053100
     25 C23          0.4090   -12.5870    -1.1560 c3         1 XE4       0.287900
     26 C24          0.2230   -12.8750    -2.2360 c3         1 XE4      -0.101600
     27 O3          -0.0010   -14.0060    -0.2590 oh         1 XE4      -0.648800
     28 C25          1.8400   -12.4820    -0.4110 c3         1 XE4      -0.101600
     29 C26         -1.6580    -6.3690    -0.0900 c3         1 XE4      -0.156100
     30 H11A        -0.7670     0.1050    -0.7580 hc         1 XE4       0.066200
     31 H12         -0.1310     1.0100     0.3700 hc         1 XE4       0.066200
     32 H2           1.8900    -0.8870    -0.5090 h1         1 XE4       0.050700
     33 H31          1.7770     0.9800     1.8130 hc         1 XE4       0.054200
     34 H32          3.1250     0.0990     1.3450 hc         1 XE4       0.054200
     35 H4           2.0050    -1.2940     3.1580 h1         1 XE4       0.035700
     36 H7          -2.0180    -2.7380     0.8660 ha         1 XE4       0.322000
     37 H8          -2.6420    -3.2820     1.8290 ha         1 XE4       0.110000
     38 H101         0.1160    -2.0320     3.9890 ha         1 XE4       0.122000
     39 H102        -1.6080    -1.7170     3.0500 ha         1 XE4       0.122000
     40 HO1          2.7730     0.8230    -1.1050 ho         1 XE4       0.395000
     41 HO2          2.8880    -2.5160     2.1760 ho         1 XE4       0.387000
     42 H11         -4.3780    -5.0850     1.5880 hc         1 XE4       0.083700
     43 H131        -3.8630    -5.2260    -1.2260 hc         1 XE4       0.189200
     44 H132        -4.1330    -7.0290    -1.5120 hc         1 XE4       0.189200
     45 H141        -4.0330    -5.0440    -2.5620 hc         1 XE4       0.000700
     46 H142        -3.6830    -4.2470    -0.8320 hc         1 XE4       0.000700
     47 H151        -3.4580    -4.6710    -1.2730 hc         1 XE4       0.035200
     48 H152        -3.0350    -3.0880    -1.4770 hc         1 XE4       0.035200
     49 H161        -2.0950    -4.7800     3.1010 hc         1 XE4       0.114700
     50 H162        -1.9730    -6.3320     1.9440 hc         1 XE4       0.114700
     51 H171        -2.1650    -7.7720     2.1950 hc         1 XE4       0.076200
     52 H172        -2.7570    -7.3080     3.7560 hc         1 XE4       0.076200
     53 H18         -4.3700    -7.8740     1.3070 hc         1 XE4       0.083700
     54 H241         0.7240   -12.1670    -2.8860 hc         1 XE4       0.054533
     55 H242        -0.6210   -12.5090    -2.8080 hc         1 XE4       0.054533
     56 H243         0.6040   -13.6250    -2.9190 hc         1 XE4       0.054533
     57 HO3         -0.8670   -13.9860    -0.6310 ho         1 XE4       0.363000
     58 H251         2.1870   -11.6480    -1.0080 hc         1 XE4       0.054533
     59 H252         2.5420   -13.1210    -0.9330 hc         1 XE4       0.054533
     60 H253         2.4410   -12.3920     0.4860 hc         1 XE4       0.054533
     61 H261        -1.4970    -7.3130    -0.5960 hc         1 XE4       0.053033
     62 H262        -0.7980    -6.7200     0.4670 hc         1 XE4       0.053033
     63 H263        -1.2630    -5.7160    -0.8590 hc         1 XE4       0.053033
@<TRIPOS>BOND
     1     1     2 1
     2     1     6 1
     3     1    30 1
     4     1    31 1
     5     2     3 1
     6     2    11 1
     7     2    32 1
     8     3     4 1
     9     3    33 1
    10     3    34 1
    11     4     5 1
    12     4    12 1
    13     4    35 1
    14     5     6 1
    15     5    10 2
    16     6     7 2
    17     7     8 1
    18     7    36 1
    19     8     9 2
    20     8    37 1
    21     9    13 1
    22     9    17 1
    23    10    38 1
    24    10    39 1
    25    11    40 1
    26    12    41 1
    27    13    14 1
    28    13    18 1
    29    13    42 1
    30    14    15 1
    31    14    20 1
    32    14    29 1
    33    15    16 1
    34    15    43 1
    35    15    44 1
    36    16    17 1
    37    16    45 1
    38    16    46 1
    39    17    47 1
    40    17    48 1
    41    18    19 1
    42    18    49 1
    43    18    50 1
    44    19    20 1
    45    19    51 1
    46    19    52 1
    47    20    21 1
    48    20    53 1
    49    21    22 3
    50    22    23 1
    51    23    24 3
    52    24    25 1
    53    25    26 1
    54    25    27 1
    55    25    28 1
    56    26    54 1
    57    26    55 1
    58    26    56 1
    59    27    57 1
    60    28    58 1
    61    28    59 1
    62    28    60 1
    63    29    61 1
    64    29    62 1
    65    29    63 1
@<TRIPOS>SUBSTRUCTURE
     1 XE4         1 TEMP              0 ****  ****    0 ROOT
