@<TRIPOS>MOLECULE
XEB
   41    43     1     0     0
SMALL
bcc


@<TRIPOS>ATOM
      1 N01          0.0000     0.0000     0.0000 nb         1 XEB      -0.575000
      2 C02          1.3170     0.0000     0.0000 ca         1 XEB       0.503200
      3 N02          1.9950     0.0010    -1.2100 nv         1 XEB      -0.662500
      4 C03          2.0510     0.0000     1.1960 ca         1 XEB      -0.219300
      5 C04          1.4000    -0.0010     2.3920 ca         1 XEB      -0.055000
      6 C05         -0.0110    -0.0020     2.3840 ca         1 XEB      -0.146300
      7 C06         -0.7450    -0.0020     3.5810 ca         1 XEB      -0.083000
      8 C07         -2.1060    -0.0030     3.5350 ca         1 XEB      -0.080000
      9 C08         -2.7800    -0.0030     2.3170 ca         1 XEB      -0.106300
     10 C09         -2.0990    -0.0030     1.1380 ca         1 XEB      -0.113300
     11 C10         -0.6940    -0.0010     1.1440 ca         1 XEB       0.375600
     12 C11         -4.2870    -0.0050     2.3030 c3         1 XEB       0.260700
     13 O12         -4.7640     1.3430     2.2990 os         1 XEB      -0.299900
     14 C21         -6.1110     1.5200     2.2870 ca         1 XEB       0.151100
     15 C22         -6.9570     0.4200     2.2790 ca         1 XEB      -0.204000
     16 C23         -8.3270     0.6020     2.2660 ca         1 XEB      -0.055000
     17 C24         -8.8550     1.8810     2.2620 ca         1 XEB      -0.054600
     18 C25         -8.0130     2.9800     2.2700 ca         1 XEB      -0.054300
     19 C26         -6.6440     2.8010     2.2880 ca         1 XEB      -0.130000
     20 Cl         -10.5760     2.1070     2.2460 cl         1 XEB      -0.013400
     21 C28         -8.5920     4.3710     2.2650 c3         1 XEB       0.194100
     22 N29         -9.0990     4.6860     0.9230 n7         1 XEB      -0.578200
     23 C30         -9.6710     6.0380     0.8800 c3         1 XEB       0.179100
     24 HN02         2.2090    -0.8640    -1.6650 hn         1 XEB       0.277800
     25 HN0A         2.2510     0.8690    -1.6390 hn         1 XEB       0.277800
     26 H03          3.1340    -0.0000     1.1680 ha         1 XEB       0.117000
     27 H04          1.9510    -0.0010     3.3250 ha         1 XEB       0.110000
     28 H06         -0.2320    -0.0020     4.5350 ha         1 XEB       0.108000
     29 H07         -2.6710    -0.0030     4.4590 ha         1 XEB       0.107000
     30 H09         -2.6380    -0.0030     0.1990 ha         1 XEB       0.122000
     31 H11         -4.6390    -0.5150     1.4150 h1         1 XEB       0.006700
     32 H11A        -4.6560    -0.5160     3.1840 h1         1 XEB       0.006700
     33 H22         -6.5430    -0.5810     2.2820 ha         1 XEB       0.122000
     34 H23         -8.9870    -0.2560     2.2600 ha         1 XEB       0.112000
     35 H26         -5.9850     3.6610     2.2950 ha         1 XEB       0.121000
     36 H28         -7.8220     5.0830     2.5360 h1         1 XEB       0.015700
     37 H28A        -9.4040     4.4270     2.9800 h1         1 XEB       0.015700
     38 HN29        -8.3520     4.6190     0.2600 hn         1 XEB       0.253800
     39 H30        -10.0870     6.2240    -0.1030 h1         1 XEB      -0.001300
     40 H30A       -10.4540     6.1230     1.6250 h1         1 XEB      -0.001300
     41 H30B        -8.8960     6.7660     1.0870 h1         1 XEB      -0.001300
@<TRIPOS>BOND
     1     1     2 ar  
     2     1    11 ar  
     3     2     3 1   
     4     2     4 ar  
     5     3    24 1   
     6     3    25 1   
     7     4     5 ar  
     8     4    26 1   
     9     5     6 ar  
    10     5    27 1   
    11     6     7 ar  
    12     6    11 ar  
    13     7     8 ar  
    14     7    28 1   
    15     8     9 ar  
    16     8    29 1   
    17     9    10 ar  
    18     9    12 1   
    19    10    11 ar  
    20    10    30 1   
    21    12    13 1   
    22    12    31 1   
    23    12    32 1   
    24    13    14 1   
    25    14    15 ar  
    26    14    19 ar  
    27    15    16 ar  
    28    15    33 1   
    29    16    17 ar  
    30    16    34 1   
    31    17    18 ar  
    32    17    20 1   
    33    18    19 ar  
    34    18    21 1   
    35    19    35 1   
    36    21    22 1   
    37    21    36 1   
    38    21    37 1   
    39    22    23 1   
    40    22    38 1   
    41    23    39 1   
    42    23    40 1   
    43    23    41 1   
@<TRIPOS>SUBSTRUCTURE
     1 XEB         1 TEMP              0 ****  ****    0 ROOT
