@<TRIPOS>MOLECULE
XED
   45    48     1     0     0
SMALL
bcc


@<TRIPOS>ATOM
      1 C1          0.0560   -0.2300    0.0890 c3        1 XED      0.175300
      2 C2          1.5870   -0.0860   -0.0210 c3        1 XED      0.169800
      3 N3         -0.5540    0.9220    0.7390 nh        1 XED     -0.610000
      4 N4          2.2270    0.2440    1.2440 n3        1 XED     -0.731600
      5 C5          0.0580    1.2200    2.0280 c3        1 XED      0.175300
      6 C6          1.5880    1.3630    1.9220 c3        1 XED      0.169800
      7 C7          3.6530    0.4300    1.1040 c3        1 XED      0.160100
      8 C8         -1.9830    0.8560    0.7920 ca        1 XED      0.079600
      9 C9         -2.7510    1.8290    0.1290 ca        1 XED      0.070100
     10 C10        -2.6960   -0.1580    1.5060 ca        1 XED      0.040900
     11 F11        -2.0110   -1.1110    2.1940 f         1 XED     -0.154900
     12 C12        -4.1810    1.8000    0.1300 ca        1 XED      0.146600
     13 C13        -4.0900   -0.2000    1.5040 ca        1 XED     -0.098000
     14 C14        -4.8430    0.7570    0.8190 ca        1 XED     -0.177600
     15 O15        -2.0830    2.8750   -0.4990 os        1 XED     -0.304900
     16 N16        -4.9170    2.7760   -0.5360 na        1 XED     -0.532800
     17 C17        -6.3080    2.7600   -0.4380 cc        1 XED      0.072000
     18 C18        -4.2190    3.8260   -1.2550 c3        1 XED      0.205500
     19 C19        -2.7870    3.3900   -1.6270 c3        1 XED      0.109400
     20 C20        -4.9190    4.2870   -2.5320 c3        1 XED     -0.108100
     21 C21        -7.0120    1.8020    0.2180 cd        1 XED     -0.268400
     22 C22        -6.3320    0.6630    0.8260 c         1 XED      0.598900
     23 O23        -9.0920    2.3870   -0.7720 o         1 XED     -0.816300
     24 C24        -8.5300    1.9890    0.2880 c         1 XED      0.930800
     25 O25        -9.1050    1.8010    1.3890 o         1 XED     -0.816300
     26 O26        -6.8780   -0.3450    1.2960 o         1 XED     -0.546100
     27 H1C1       -0.1800   -1.1930    0.6290 h1        1 XED      0.046950
     28 H1C2       -0.3630   -0.3000   -0.9520 h1        1 XED      0.046950
     29 H2C1        1.8210    0.6800   -0.8170 h1        1 XED      0.031450
     30 H2C2        1.9990   -1.0760   -0.3640 h1        1 XED      0.031450
     31 H5C1       -0.3600    2.2000    2.3880 h1        1 XED      0.046950
     32 H5C2       -0.1830    0.4290    2.7970 h1        1 XED      0.046950
     33 H6C1        1.8250    2.3450    1.4160 h1        1 XED      0.031450
     34 H6C2        2.0010    1.4070    2.9690 h1        1 XED      0.031450
     35 H7C1        4.0980    0.5930    2.1200 h1        1 XED      0.026033
     36 H7C2        3.9300    1.3050    0.4510 h1        1 XED      0.026033
     37 H7C3        4.0970   -0.4980    0.6590 h1        1 XED      0.026033
     38 H13        -4.6230   -1.0000    2.0470 ha        1 XED      0.172000
     39 H17        -6.8370    3.5910   -0.9430 h4        1 XED      0.173000
     40 H18        -4.1360    4.7150   -0.5550 h1        1 XED      0.055700
     41 H191       -2.8040    2.6260   -2.4460 h1        1 XED      0.058700
     42 H192       -2.1810    4.2810   -1.9360 h1        1 XED      0.058700
     43 H201       -5.1900    3.4200   -3.1810 hc        1 XED      0.049700
     44 H202       -5.8500    4.8540   -2.2920 hc        1 XED      0.049700
     45 H203       -4.2300    4.9600   -3.0960 hc        1 XED      0.049700
@<TRIPOS>BOND
     1    1    2 1   
     2    1    3 1   
     3    1   27 1   
     4    1   28 1   
     5    2    4 1   
     6    2   29 1   
     7    2   30 1   
     8    3    5 1   
     9    3    8 1   
    10    4    6 1   
    11    4    7 1   
    12    5    6 1   
    13    5   31 1   
    14    5   32 1   
    15    6   33 1   
    16    6   34 1   
    17    7   35 1   
    18    7   36 1   
    19    7   37 1   
    20    8    9 ar  
    21    8   10 ar  
    22    9   12 ar  
    23    9   15 1   
    24   10   11 1   
    25   10   13 ar  
    26   12   14 ar  
    27   12   16 1   
    28   13   14 ar  
    29   13   38 1   
    30   14   22 1   
    31   15   19 1   
    32   16   17 1   
    33   16   18 1   
    34   17   21 2   
    35   17   39 1   
    36   18   19 1   
    37   18   20 1   
    38   18   40 1   
    39   19   41 1   
    40   19   42 1   
    41   20   43 1   
    42   20   44 1   
    43   20   45 1   
    44   21   22 1   
    45   21   24 1   
    46   22   26 2   
    47   23   24 1   
    48   24   25 1   
@<TRIPOS>SUBSTRUCTURE
     1 XED         1 TEMP              0 ****  ****    0 ROOT
