@<TRIPOS>MOLECULE
XEG
   50    49     1     0     0
SMALL
bcc


@<TRIPOS>ATOM
      1 OAA         1.6180    1.5880   -0.2200 o         1 XEG     -0.329000
      2 OAC         4.2250   -4.6590   -1.2290 oh        1 XEG     -0.221000
      3 OAD         4.7560   -1.9430   -1.4880 oh        1 XEG     -0.252000
      4 OAF         4.6700   -2.6200    2.9050 oh        1 XEG     -0.244000
      5 OAG        -2.4960    3.4070   -4.9570 oh        1 XEG     -0.255000
      6 OAH         3.2390   -1.7500    5.1010 oh        1 XEG     -0.215000
      7 CAI         1.9440   -4.1260   -1.8870 c1        1 XEG     -0.349000
      8 CAJ         1.0440   -3.4600   -2.6100 c2        1 XEG      0.002000
      9 CAK        -1.5250    1.8320   -6.3490 c2        1 XEG     -0.239000
     10 CAL         2.0120    0.5800    2.5480 ca        1 XEG     -0.140000
     11 CAM         3.6340   -0.9090    1.5060 ca        1 XEG     -0.140000
     12 CAN        -0.7980   -0.5260   -6.2900 c1        1 XEG     -0.355000
     13 CAO         2.8600   -1.8390   -3.0040 c2        1 XEG     -0.208000
     14 CAP        -0.3330    1.6020   -2.9570 c1        1 XEG     -0.115000
     15 OAQ         3.5170    0.5790   -0.8320 os        1 XEG     -0.157000
     16 OAR        -0.2330   -2.4310   -4.9360 os        1 XEG     -0.156000
     17 CAS         2.5180    0.8380    0.1540 c2        1 XEG      0.301000
     18 CAT        -0.7180    0.6950   -6.7690 c2        1 XEG      0.212000
     19 CAU         3.2480   -3.8340   -1.6830 c2        1 XEG      0.150000
     20 CAV         3.6170   -2.4560   -2.0460 c2        1 XEG      0.060000
     21 CAW         2.1960   -0.0670    3.7730 ca        1 XEG      0.033500
     22 CAX         3.8050   -1.5610    2.7300 ca        1 XEG      0.033500
     23 CAY        -1.6270    2.3370   -5.0990 c2        1 XEG      0.203000
     24 CAZ         2.7340    0.1580    1.4230 ca        1 XEG     -0.098000
     25 CBA         1.5950   -2.4030   -3.4620 c2        1 XEG     -0.138000
     26 CBB         3.0970   -1.1530    3.8800 ca        1 XEG      0.089000
     27 CBC        -0.9510   -1.7650   -5.9250 c2        1 XEG      0.089000
     28 CBD        -0.9260    1.9220   -3.9470 c1        1 XEG     -0.210000
     29 CBE         3.4620    1.0080   -2.0460 c1        1 XEG      0.002000
     30 CBF         0.9430   -1.8510   -4.5190 c2        1 XEG      0.050000
     31 HOAB        0.1160    1.8540   -8.0540 ho        1 XEG      0.223000
     32 HOAC        3.8980   -5.5700   -1.3280 ho        1 XEG      0.236000
     33 HOAD        4.8750   -1.0360   -1.8270 ho        1 XEG      0.241000
     34 HOAE        0.9330    1.0260    4.6950 ho        1 XEG      0.234000
     35 HOAF        4.9770   -2.9030    2.0290 ho        1 XEG      0.234000
     36 HOAG       -2.4860    3.6930   -4.0330 ho        1 XEG      0.232000
     37 HOAH        3.8540   -2.4970    4.9990 ho        1 XEG      0.242000
     38 HAI        -0.0430   -3.5920   -2.5590 ha        1 XEG      0.154000
     39 HAJ         2.5940    1.6330   -2.3590 ha        1 XEG      0.046000
     40 HAK        -2.1180    2.2960   -7.1590 ha        1 XEG      0.163000
     41 HAL         1.3020    1.4170    2.4610 ha        1 XEG      0.169000
     42 HAM         4.1930   -1.2420    0.6130 ha        1 XEG      0.169000
     43 HAN        -1.7060   -2.4710   -6.3170 h4        1 XEG      0.181000
     44 HAO         3.2010   -0.8950   -3.4590 ha        1 XEG      0.150000
     45 HAP         0.1880    1.3350   -2.0670 ha        1 XEG      0.246000
     46 HAPA        5.0020    2.7760   -1.9360 ha        1 XEG      0.006000
     47 HBE         4.4610    3.1520   -1.7710 ha        1 XEG      0.006000
     48 HBF         1.2880   -0.9580   -5.0660 h4        1 XEG      0.160000
     49 OAE         1.5310    0.2970    4.9190 oh        1 XEG     -0.244000
     50 OAB         0.1500    0.9130   -7.8280 oh        1 XEG     -0.255000
@<TRIPOS>BOND
     1    1   17 1   
     2    2   19 1   
     3    2   32 1   
     4    3   20 1   
     5    3   33 1   
     6    4   22 1   
     7    4   35 1   
     8    5   23 1   
     9    5   36 1   
    10    6   26 1   
    11    6   37 1   
    12    7    8 1   
    13    7   19 1   
    14    8   25 1   
    15    8   38 1   
    16    9   18 1   
    17    9   23 1   
    18    9   40 1   
    19   10   21 1   
    20   10   24 1   
    21   10   41 1   
    22   11   22 1   
    23   11   24 1   
    24   11   42 1   
    25   12   18 1   
    26   12   27 1   
    27   13   20 1   
    28   13   25 1   
    29   13   44 1   
    30   14   28 1   
    31   14   45 1   
    32   15   17 1   
    33   15   29 1   
    34   16   27 1   
    35   16   30 1   
    36   17   24 1   
    37   18   50 1   
    38   19   20 1   
    39   21   26 1   
    40   21   49 1   
    41   22   26 1   
    42   23   28 1   
    43   25   30 1   
    44   27   43 1   
    45   29   39 1   
    46   30   48 1   
    47   31   50 1   
    48   34   49 1   
    49   46   47 1   
@<TRIPOS>SUBSTRUCTURE
     1 XEG         1 TEMP              0 ****  ****    0 ROOT
