@<TRIPOS>MOLECULE
molecule
   50    53     1     0     0
SMALL
bcc


@<TRIPOS>ATOM
      1 OAA          0.0000     0.0000     0.0000 o          1 XEG      -0.541000
      2 OAC          3.3150    -5.8940    -1.8650 oh         1 XEG      -0.500100
      3 OAD          5.1000    -3.8160    -1.5820 oh         1 XEG      -0.501100
      4 OAF          5.3990    -0.0030     2.4790 oh         1 XEG      -0.497100
      5 OAG         -0.5380     3.6600    -3.8430 oh         1 XEG      -0.499100
      6 OAH          4.0200     0.0000     4.8600 oh         1 XEG      -0.489100
      7 CAI          1.7220    -4.4080    -2.8190 ca         1 XEG      -0.165000
      8 CAJ          1.3710    -3.1320    -3.2210 ca         1 XEG      -0.091000
      9 CAK         -0.9180     2.6350    -5.9510 ca         1 XEG      -0.270000
     10 CAL          1.2540     0.0010     2.4890 ca         1 XEG      -0.104000
     11 CAM          3.3500    -0.0010     1.2790 ca         1 XEG      -0.104000
     12 CAN         -0.1240     0.4050    -6.3450 ca         1 XEG      -0.205000
     13 CAO          3.5140    -2.3150    -2.5250 ca         1 XEG      -0.122000
     14 CAP          0.8170     1.4410    -2.8170 c3         1 XEG      -0.040100
     15 OAQ          1.8880    -0.0010    -1.1670 os         1 XEG      -0.417900
     16 OAR          1.0280    -0.7760    -4.6560 os         1 XEG      -0.314900
     17 CAS          1.2140     0.0000     0.0000 c          1 XEG       0.655700
     18 CAT         -0.7770     1.5410    -6.7930 ca         1 XEG       0.170100
     19 CAU          2.9690    -4.6410    -2.2650 ca         1 XEG       0.102100
     20 CAV          3.8700    -3.5900    -2.1170 ca         1 XEG       0.088100
     21 CAW          1.9480     0.0000     3.6830 ca         1 XEG       0.080600
     22 CAX          4.0380    -0.0010     2.4770 ca         1 XEG       0.080600
     23 CAY         -0.4000     2.5880    -4.6680 ca         1 XEG       0.178100
     24 CAZ          1.9520    -0.0000     1.2770 ca         1 XEG      -0.114600
     25 CBA          2.2630    -2.0870    -3.0690 ca         1 XEG      -0.092300
     26 CBB          3.3410    -0.0000     3.6830 ca         1 XEG       0.100100
     27 CBC          0.4000     0.3590    -5.0570 ca         1 XEG       0.180100
     28 CBD          0.2620     1.4510    -4.2190 ca         1 XEG      -0.191300
     29 CBE          1.0980    -0.0000    -2.3850 c3         1 XEG       0.120100
     30 CBF          1.8760    -0.6980    -3.5060 c3         1 XEG       0.204400
     31 HOAB        -2.1950     1.3680    -8.0370 ho         1 XEG       0.426000
     32 HOAC         3.3660    -6.4610    -2.6170 ho         1 XEG       0.417000
     33 HOAD         5.7350    -3.8900    -2.2750 ho         1 XEG       0.415000
     34 HOAE         0.8990     0.8550     5.0110 ho         1 XEG       0.416000
     35 HOAF         5.7150     0.8730     2.3270 ho         1 XEG       0.416000
     36 HOAG        -0.5460     4.4520    -4.3540 ho         1 XEG       0.427000
     37 HOAH         4.1610     0.8890     5.1410 ho         1 XEG       0.417000
     38 HAI          1.0210    -5.2250    -2.9400 ha         1 XEG       0.144000
     39 HAJ          0.3940    -2.9510    -3.6510 ha         1 XEG       0.148000
     40 HAK         -1.3760     3.5460    -6.3170 ha         1 XEG       0.145000
     41 HAL          0.1710     0.0020     2.4900 ha         1 XEG       0.165500
     42 HAM          3.8930    -0.0020     0.3410 ha         1 XEG       0.165500
     43 HAN         -0.0180    -0.4500    -7.0020 ha         1 XEG       0.158000
     44 HAO          4.2110    -1.4940    -2.4070 ha         1 XEG       0.145000
     45 HAP          1.7390     2.0090    -2.7920 hc         1 XEG       0.074200
     46 HAPA         0.0950     1.8840    -2.1420 hc         1 XEG       0.074200
     47 HBE          0.1610    -0.5180    -2.2170 h1         1 XEG       0.093700
     48 HBF          2.7620    -0.1240    -3.7460 h1         1 XEG       0.067700
     49 OAE          1.2700     0.0010     4.8620 oh         1 XEG      -0.497100
     50 OAB         -1.2780     1.5860    -8.0550 oh         1 XEG      -0.519100
@<TRIPOS>BOND
     1     1    17 2
     2    18    50 1
     3    50    31 1
     4    19     2 1
     5     2    32 1
     6    20     3 1
     7     3    33 1
     8    49    21 1
     9    49    34 1
    10    22     4 1
    11     4    35 1
    12     5    23 1
    13     5    36 1
    14    26     6 1
    15     6    37 1
    16     8     7 ar
    17     7    19 ar
    18     7    38 1
    19     8    25 ar
    20     8    39 1
    21    23     9 ar
    22     9    18 ar
    23     9    40 1
    24    10    21 ar
    25    10    24 ar
    26    10    41 1
    27    24    11 ar
    28    11    22 ar
    29    11    42 1
    30    27    12 ar
    31    12    18 ar
    32    12    43 1
    33    25    13 ar
    34    13    20 ar
    35    13    44 1
    36    29    14 1
    37    14    28 1
    38    14    45 1
    39    14    46 1
    40    17    15 1
    41    15    29 1
    42    30    16 1
    43    16    27 1
    44    17    24 1
    45    19    20 ar
    46    21    26 ar
    47    26    22 ar
    48    28    23 ar
    49    30    25 1
    50    28    27 ar
    51    29    30 1
    52    29    47 1
    53    30    48 1
@<TRIPOS>SUBSTRUCTURE
     1 XEG         1 TEMP              0 ****  ****    0 ROOT
