@<TRIPOS>MOLECULE
molecule
   32    32     1     0     0
SMALL
bcc


@<TRIPOS>ATOM
      1 C1           0.0000     0.0000     0.0000 c3         1 XEN      -0.090100
      2 C2           1.5300     0.0000     0.0000 c3         1 XEN      -0.083400
      3 C3           2.0390     0.0000     1.4430 c3         1 XEN      -0.106400
      4 C4           3.5690    -0.0000     1.4430 c3         1 XEN       0.208800
      5 N5           4.0570    -0.0000     2.8250 nh         1 XEN      -0.638400
      6 C6           4.2880    -1.1780     3.4780 c2         1 XEN       0.269000
      7 C7           4.9840    -1.2250     4.6230 ce         1 XEN      -0.441400
      8 C8           5.5490     0.0050     5.2760 c3         1 XEN      -0.024200
      9 C9           5.6510     1.1430     4.2580 c3         1 XEN      -0.092400
     10 C10          4.3110     1.2660     3.5250 c3         1 XEN       0.209800
     11 C11          5.1960    -2.4800     5.2400 c          1 XEN       0.517300
     12 O12          4.7490    -3.4920     4.7310 o          1 XEN      -0.505100
     13 N13          5.8930    -2.5570     6.3910 nz         1 XEN      -0.667400
     14 H13         -0.3610    -0.8850     0.5100 hc         1 XEN       0.043033
     15 H11         -0.3610     0.8840     0.5110 hc         1 XEN       0.043033
     16 H12         -0.3610     0.0010    -1.0210 hc         1 XEN       0.043033
     17 H22          1.8910     0.8850    -0.5110 hc         1 XEN       0.047700
     18 H21          1.8910    -0.8850    -0.5110 hc         1 XEN       0.047700
     19 H32          1.6780     0.8850     1.9540 hc         1 XEN       0.053700
     20 H31          1.6780    -0.8850     1.9540 hc         1 XEN       0.053700
     21 H42          3.9310     0.8850     0.9330 h1         1 XEN       0.073700
     22 H41          3.9310    -0.8850     0.9320 h1         1 XEN       0.073700
     23 H61          3.8980    -2.0990     3.0600 h4         1 XEN       0.185000
     24 H81          6.5360    -0.2170     5.6630 hc         1 XEN       0.036200
     25 H91          6.4360     0.9220     3.5440 hc         1 XEN       0.073200
     26 H101         3.5200     1.4530     4.2400 h1         1 XEN       0.076700
     27 H132         5.9360    -3.5100     6.6930 hn         1 XEN       0.469133
     28 H131         6.8210    -2.2120     6.2430 hn         1 XEN       0.469133
     29 H1           4.9000     0.3090     6.0880 hc         1 XEN       0.036200
     30 H2           5.8690     2.0710     4.7720 hc         1 XEN       0.073200
     31 H3           4.3620     2.0760     2.8060 h1         1 XEN       0.076700
     32 H133         5.4440    -2.0000     7.0910 hn         1 XEN       0.469133
@<TRIPOS>BOND
     1    13    11 1
     2    11    12 2
     3    11     7 1
     4     8     7 1
     5     8     9 1
     6     7     6 2
     7     9    10 1
     8     6     5 1
     9    10     5 1
    10     5     4 1
    11     1     2 1
    12     4     3 1
    13     2     3 1
    14     1    14 1
    15     1    15 1
    16     1    16 1
    17     2    17 1
    18     2    18 1
    19     3    19 1
    20     3    20 1
    21     4    21 1
    22     4    22 1
    23     6    23 1
    24     8    24 1
    25     9    25 1
    26    10    26 1
    27    13    27 1
    28    13    28 1
    29     8    29 1
    30     9    30 1
    31    10    31 1
    32    32    13 1
@<TRIPOS>SUBSTRUCTURE
     1 XEN         1 TEMP              0 ****  ****    0 ROOT
