@<TRIPOS>MOLECULE
molecule
   28    29     1     0     0
SMALL
bcc


@<TRIPOS>ATOM
      1 C            0.0000     0.0000     0.0000 c          1 XEV       0.883200
      2 O            1.3480     0.0000     0.0000 o          1 XEV      -0.836300
      3 C1          -0.7380     0.0000     1.2800 ca         1 XEV      -0.107600
      4 C10         -8.4820    -0.0200     4.8250 c3         1 XEV       0.132700
      5 C11         -7.0760    -0.0230     2.5170 ca         1 XEV      -0.243000
      6 C12         -6.3920    -0.0240     1.3150 ca         1 XEV      -0.095000
      7 C13         -5.0110    -0.0180     1.3030 ca         1 XEV      -0.159000
      8 C2          -2.1330    -0.0060     1.2830 ca         1 XEV      -0.084000
      9 C3          -2.8200    -0.0050     2.4910 cp         1 XEV      -0.090000
     10 C4          -2.1130     0.0020     3.6930 ca         1 XEV      -0.134000
     11 C5          -0.7310     0.0080     3.6860 ca         1 XEV      -0.168000
     12 C6          -0.0410     0.0010     2.4910 ca         1 XEV      -0.082000
     13 C7          -4.3040    -0.0120     2.5020 cp         1 XEV       0.035000
     14 C8          -4.9930    -0.0110     3.7130 ca         1 XEV      -0.165000
     15 C9          -6.3780    -0.0160     3.7170 ca         1 XEV       0.129100
     16 O1          -0.6080     0.0030    -1.0510 o          1 XEV      -0.836300
     17 O2          -7.0540    -0.0150     4.8960 os         1 XEV      -0.336900
     18 H7          -8.8930    -0.0180     5.8280 h1         1 XEV       0.033700
     19 H5          -8.8140    -0.9080     4.3010 h1         1 XEV       0.033700
     20 H6          -8.8210     0.8610     4.2950 h1         1 XEV       0.033700
     21 H8          -8.1600    -0.0270     2.5210 ha         1 XEV       0.119000
     22 H9          -6.9410    -0.0290     0.3810 ha         1 XEV       0.121000
     23 H10         -4.4780    -0.0190     0.3600 ha         1 XEV       0.151000
     24 H           -2.6760    -0.1010     0.3510 ha         1 XEV       0.149000
     25 H1          -2.6480     0.0030     4.6350 ha         1 XEV       0.109000
     26 H2          -0.1870     0.0180     4.6230 ha         1 XEV       0.107000
     27 H3           1.0420    -0.0030     2.4910 ha         1 XEV       0.155000
     28 H4          -4.4470    -0.0050     4.6480 ha         1 XEV       0.144000
@<TRIPOS>BOND
     1     4    17 1
     2     5     6 ar
     3     5    15 ar
     4     6     7 ar
     5    17    15 1
     6    15    14 ar
     7     7    13 ar
     8    16     1 1
     9    14    13 ar
    10    13     9 1
    11     8     9 ar
    12     8     3 ar
    13     1     3 1
    14     1     2 1
    15     9    10 ar
    16     3    12 ar
    17    10    11 ar
    18    12    11 ar
    19     4    18 1
    20     4    19 1
    21     4    20 1
    22     5    21 1
    23     6    22 1
    24     7    23 1
    25     8    24 1
    26    10    25 1
    27    11    26 1
    28    12    27 1
    29    14    28 1
@<TRIPOS>SUBSTRUCTURE
     1 XEV         1 TEMP              0 ****  ****    0 ROOT
