@<TRIPOS>MOLECULE
molecule
   28    31     1     0     0
SMALL
bcc


@<TRIPOS>ATOM
      1 CAC          0.0000     0.0000     0.0000 cc         1 XEZ       0.347200
      2 NAH          1.3070     0.0000     0.0000 nd         1 XEZ      -0.506800
      3 NAM          1.7520     0.0000     1.3280 na         1 XEZ      -0.040600
      4 CAF          0.6710     0.0010     2.1350 cd         1 XEZ      -0.062300
      5 CAN         -0.4370     0.0000     1.3390 cc         1 XEZ      -0.370800
      6 CAP         -1.8480     0.0010     1.8010 cc         1 XEZ       0.488800
      7 CAG         -2.8540     0.0010     0.8840 cd         1 XEZ      -0.210600
      8 NAS         -4.1530     0.0010     1.3070 na         1 XEZ       0.081700
      9 NAI         -2.1140    -0.0030     3.1170 nc         1 XEZ      -0.690000
     10 CAE         -3.3460    -0.0030     3.5630 cd         1 XEZ       0.490200
     11 CAR         -4.4230     0.0020     2.6540 cd         1 XEZ      -0.160600
     12 NAJ         -5.7380     0.0020     2.8160 nc         1 XEZ      -0.299600
     13 CAD         -6.3330     0.0020     1.6280 cc         1 XEZ       0.073600
     14 CAQ         -5.3570     0.0010     0.6540 cd         1 XEZ      -0.234900
     15 CAO         -5.5680     0.0010    -0.8090 cd         1 XEZ       0.437100
     16 CAB         -4.5580     0.0010    -1.7940 cd         1 XEZ      -0.353300
     17 CAA         -5.1600     0.0000    -3.0020 cc         1 XEZ      -0.104300
     18 NAL         -6.4960    -0.0000    -2.8050 na         1 XEZ      -0.039600
     19 NAK         -6.7340    -0.0050    -1.4250 nc         1 XEZ      -0.499800
     20 HAC         -0.6360    -0.0000    -0.8770 h4         1 XEZ       0.047100
     21 HAM          2.7080     0.0000     1.6260 hn         1 XEZ       0.334700
     22 HAF          0.6810     0.0010     3.2180 h4         1 XEZ       0.191000
     23 HAG         -2.6280     0.1160    -0.1690 h4         1 XEZ       0.173000
     24 HAE         -3.5370    -0.0060     4.6300 h4         1 XEZ       0.054100
     25 HAD         -7.4020     0.0030     1.4540 h4         1 XEZ       0.199000
     26 HAB         -3.4900     0.0010    -1.6130 ha         1 XEZ       0.150000
     27 HAK         -7.1950    -0.0020    -3.5210 hn         1 XEZ       0.333700
     28 HAA         -4.6590     0.0020    -3.9630 h4         1 XEZ       0.171000
@<TRIPOS>BOND
     1     1     2 2
     2     1     5 1
     3     2     3 1
     4     3     4 1
     5     4     5 2
     6     5     6 1
     7     6     7 2
     8     6     9 1
     9     7     8 1
    10     8    11 1
    11     8    14 1
    12     9    10 2
    13    10    11 1
    14    11    12 2
    15    12    13 1
    16    13    14 2
    17    14    15 1
    18    15    16 1
    19    15    19 2
    20    16    17 2
    21    17    18 1
    22    18    19 1
    23     1    20 1
    24     3    21 1
    25     4    22 1
    26     7    23 1
    27    10    24 1
    28    13    25 1
    29    16    26 1
    30    18    27 1
    31    17    28 1
@<TRIPOS>SUBSTRUCTURE
     1 XEZ         1 TEMP              0 ****  ****    0 ROOT
