@<TRIPOS>MOLECULE
XEZ
   28    31     1     0     0
SMALL
bcc


@<TRIPOS>ATOM
      1 CAC         0.0820    0.2510    0.0530 cc        1 XEZ      0.309200
      2 NAH         1.4380    0.2760    0.0810 nd        1 XEZ     -0.513800
      3 NAM         1.8000    0.1560    1.3610 na        1 XEZ     -0.021600
      4 CAF         0.7090    0.0490    2.2190 cd        1 XEZ     -0.089300
      5 CAN        -0.4390    0.1060    1.4000 cc        1 XEZ     -0.320800
      6 CAP        -1.8170    0.0360    1.8180 cc        1 XEZ      0.461800
      7 CAG        -2.8280    0.0520    0.8530 cd        1 XEZ     -0.183600
      8 NAS        -4.1420   -0.0170    1.2530 na        1 XEZ      0.045700
      9 NAI        -2.0850   -0.0450    3.1850 nc        1 XEZ     -0.660000
     10 CAE        -3.3390   -0.0980    3.5740 cd        1 XEZ      0.465200
     11 CAR        -4.4550   -0.0810    2.6540 cd        1 XEZ     -0.167600
     12 NAJ        -5.8070   -0.1130    2.8500 nc        1 XEZ     -0.260600
     13 CAD        -6.3640   -0.0690    1.5920 cc        1 XEZ      0.041600
     14 CAQ        -5.3630   -0.0150    0.5760 cd        1 XEZ     -0.203900
     15 CAO        -5.5350    0.0190   -0.8490 cd        1 XEZ      0.383100
     16 CAB        -4.6540   -0.5560   -1.8490 cd        1 XEZ     -0.292300
     17 CAA        -5.2790   -0.2860   -3.0740 cc        1 XEZ     -0.143300
     18 NAL        -6.4550    0.4050   -2.7700 na        1 XEZ     -0.012600
     19 NAK        -6.6200    0.5940   -1.4650 nc        1 XEZ     -0.494800
     20 HAC        -0.4780    0.3370   -0.8780 h4        1 XEZ      0.041100
     21 HAM         2.7620    0.1530    1.6100 hn        1 XEZ      0.324700
     22 HAF         0.8050   -0.0540    3.3000 h4        1 XEZ      0.195000
     23 HAG        -2.6300    0.1270   -0.2280 h4        1 XEZ      0.177000
     24 HAE        -3.5510   -0.1560    4.6570 h4        1 XEZ      0.051100
     25 HAD        -7.4450   -0.0760    1.4340 h4        1 XEZ      0.194000
     26 HAB        -3.7340   -1.1000   -1.6750 ha        1 XEZ      0.167000
     27 HAK        -7.1320    0.7470   -3.4100 hn        1 XEZ      0.325700
     28 HAA        -4.9910   -0.5250   -4.0960 h4        1 XEZ      0.180000
@<TRIPOS>BOND
     1    1    2 2   
     2    1    5 1   
     3    1   20 1   
     4    2    3 1   
     5    3    4 1   
     6    3   21 1   
     7    4    5 2   
     8    4   22 1   
     9    5    6 1   
    10    6    7 2   
    11    6    9 1   
    12    7    8 1   
    13    7   23 1   
    14    8   11 1   
    15    8   14 1   
    16    9   10 2   
    17   10   11 1   
    18   10   24 1   
    19   11   12 2   
    20   12   13 1   
    21   13   14 2   
    22   13   25 1   
    23   14   15 1   
    24   15   16 1   
    25   15   19 2   
    26   16   17 2   
    27   16   26 1   
    28   17   18 1   
    29   17   28 1   
    30   18   19 1   
    31   18   27 1   
@<TRIPOS>SUBSTRUCTURE
     1 XEZ         1 TEMP              0 ****  ****    0 ROOT
