@<TRIPOS>MOLECULE
XF5
   30    32     1     0     0
SMALL
bcc


@<TRIPOS>ATOM
      1 C11          0.0000     0.0000     0.0000 c3         1 XF5       0.147800
      2 C12          1.5300     0.0000     0.0000 c3         1 XF5       0.145300
      3 N13          2.0170     0.0000     1.3860 n7         1 XF5      -0.586200
      4 C14          1.5300     1.1810     2.1130 c3         1 XF5       0.145300
      5 C15         -0.0000     1.1800     2.1130 c3         1 XF5       0.147800
      6 N10         -0.4870     1.1800     0.7270 nh         1 XF5      -0.402000
      7 C3          -1.8800     1.2530     0.6860 ca         1 XF5       0.069600
      8 C4          -2.5140     2.3640     0.1110 ca         1 XF5      -0.085800
      9 C5          -2.0330     3.5930    -0.5220 cc         1 XF5      -0.141200
     10 C6          -3.1150     4.2970    -0.8880 cd         1 XF5      -0.278100
     11 N7          -4.2520     3.6160    -0.5380 na         1 XF5       0.348600
     12 C8          -3.9170     2.4300     0.0740 ca         1 XF5      -0.222200
     13 C9          -4.6660     1.3860     0.6120 ca         1 XF5      -0.107000
     14 C1          -4.0320     0.3010     1.1750 ca         1 XF5      -0.076000
     15 C2          -2.6470     0.2260     1.2080 ca         1 XF5      -0.171000
     16 H111        -0.3600     0.0320    -1.0210 h1         1 XF5       0.018450
     17 H112        -0.3600    -0.8980     0.4880 h1         1 XF5       0.018450
     18 H121         1.8900    -0.8860    -0.5080 h1         1 XF5       0.009700
     19 H122         1.8900     0.8860    -0.5080 h1         1 XF5       0.009700
     20 H13          3.0180    -0.0040     1.3880 hn         1 XF5       0.251800
     21 H141         1.8900     2.0780     1.6240 h1         1 XF5       0.009700
     22 H142         1.8910     1.1500     3.1340 h1         1 XF5       0.009700
     23 H151        -0.3600     0.2940     2.6220 h1         1 XF5       0.018450
     24 H152        -0.3610     2.0660     2.6220 h1         1 XF5       0.018450
     25 H2          -2.1630    -0.6350     1.6540 ha         1 XF5       0.115000
     26 H5          -0.9980     3.8800    -0.6680 ha         1 XF5       0.134000
     27 H6          -3.0940     5.2590    -1.3850 h4         1 XF5       0.138000
     28 H7          -5.1860     3.9340    -0.7040 hn         1 XF5       0.112700
     29 H9          -5.7480     1.4310     0.5930 ha         1 XF5       0.098000
     30 H1          -4.6220    -0.5090     1.5860 ha         1 XF5       0.100000
@<TRIPOS>BOND
     1     1     2 1   
     2     1     6 1   
     3     1    16 1   
     4     1    17 1   
     5     2     3 1   
     6     2    18 1   
     7     2    19 1   
     8     3     4 1   
     9     3    20 1   
    10     4     5 1   
    11     4    21 1   
    12     4    22 1   
    13     5     6 1   
    14     5    23 1   
    15     5    24 1   
    16     6     7 1   
    17     7     8 ar  
    18     7    15 ar  
    19     8     9 1   
    20     8    12 ar  
    21     9    10 2   
    22     9    26 1   
    23    10    11 1   
    24    10    27 1   
    25    11    12 1   
    26    11    28 1   
    27    12    13 ar  
    28    13    14 ar  
    29    13    29 1   
    30    14    15 ar  
    31    14    30 1   
    32    15    25 1   
@<TRIPOS>SUBSTRUCTURE
     1 XF5         1 TEMP              0 ****  ****    0 ROOT
