@<TRIPOS>MOLECULE
molecule
   69    72     1     0     0
SMALL
bcc


@<TRIPOS>ATOM
      1 C2           0.0000     0.0000     0.0000 ca         1 XFA      -0.211000
      2 C4           0.0060     0.0100     2.4050 ca         1 XFA       0.059600
      3 C6           2.0780     0.0000     1.1960 ca         1 XFA      -0.007600
      4 C9          -2.6920    -0.1120     0.0050 ca         1 XFA       0.101100
      5 C14         -3.3630     0.9770    -0.5330 ca         1 XFA      -0.131500
      6 C13         -4.0110     0.8550    -1.7470 ca         1 XFA      -0.116000
      7 C12         -3.9920    -0.3500    -2.4250 ca         1 XFA       0.022400
      8 C11         -3.3240    -1.4360    -1.8900 ca         1 XFA      -0.116000
      9 C1           1.3830     0.0000     0.0000 ca         1 XFA      -0.081000
     10 C3          -0.6940     0.0040     1.1980 ca         1 XFA       0.200100
     11 C5           1.3930     0.0110     2.3980 ca         1 XFA      -0.128000
     12 Cl1          3.8140     0.0010     1.1890 cl         1 XFA      -0.117400
     13 O8          -2.0530     0.0050     1.1990 os         1 XFA      -0.190200
     14 C10         -2.6780    -1.3210    -0.6740 ca         1 XFA      -0.131500
     15 Cl2         -4.8030    -0.4970    -3.9540 cl         1 XFA      -0.110400
     16 N16         -0.6900     0.0220     3.6180 nh         1 XFA      -0.561000
     17 C17         -0.3560    -1.1580     4.4270 c3         1 XFA       0.109800
     18 C18         -1.2940    -1.2420     5.6030 c          1 XFA       0.688100
     19 N19         -1.1760    -2.2520     6.4890 n          1 XFA      -0.384200
     20 N20         -0.2050    -3.1990     6.3210 n3         1 XFA      -0.421600
     21 C21         -2.0890    -2.3340     7.6320 c3         1 XFA       0.070300
     22 O22         -2.1560    -0.4030     5.7530 o          1 XFA      -0.580100
     23 C23          0.7300    -3.2090     7.4680 c3         1 XFA       0.167600
     24 C24          1.1640    -4.6480     7.6270 ca         1 XFA      -0.106300
     25 C25          0.2640    -5.4500     6.9470 ca         1 XFA      -0.106300
     26 C26         -0.7850    -4.5600     6.3220 c3         1 XFA       0.167600
     27 C27          2.2310    -5.2200     8.2940 ca         1 XFA      -0.104500
     28 C28          2.4010    -6.5920     8.2810 ca         1 XFA      -0.122000
     29 C29          1.5020    -7.3920     7.6020 ca         1 XFA      -0.122000
     30 C30          0.4340    -6.8220     6.9350 ca         1 XFA      -0.104500
     31 C31         -0.4290     1.2610     4.3630 c3         1 XFA       0.088800
     32 C32         -1.0900     2.4180     3.6590 c          1 XFA       0.664100
     33 N33         -0.9850     3.6630     4.1640 ns         1 XFA      -0.595900
     34 C34         -1.6270     4.7880     3.4790 c3         1 XFA       0.113000
     35 C35         -1.3560     6.0790     4.2540 c3         1 XFA       0.137800
     36 N36         -1.9990     7.2060     3.5680 n7         1 XFA      -0.815200
     37 C37         -1.7600     8.4660     4.2850 c3         1 XFA       0.148100
     38 O38         -1.7150     2.2290     2.6370 o          1 XFA      -0.579100
     39 H1          -0.5410    -0.0020    -0.9380 ha         1 XFA       0.154000
     40 H2          -3.3780     1.9210    -0.0020 ha         1 XFA       0.157000
     41 H3          -4.5350     1.7050    -2.1670 ha         1 XFA       0.147500
     42 H4          -3.3120    -2.3800    -2.4220 ha         1 XFA       0.147500
     43 H5           1.9230    -0.0060    -0.9390 ha         1 XFA       0.145000
     44 H6           1.9400     0.0130     3.3330 ha         1 XFA       0.144000
     45 H7          -2.1550    -2.1720    -0.2560 ha         1 XFA       0.157000
     46 H8          -0.4550    -2.0510     3.8210 h1         1 XFA       0.066200
     47 H9           0.6640    -1.0750     4.7830 h1         1 XFA       0.066200
     48 H10         -2.0440    -1.4110     8.1960 h1         1 XFA       0.049700
     49 H11         -3.1000    -2.4920     7.2760 h1         1 XFA       0.049700
     50 H12         -1.7970    -3.1610     8.2680 h1         1 XFA       0.049700
     51 H13          1.5920    -2.5950     7.2380 h1         1 XFA       0.067450
     52 H14          0.2090    -2.8870     8.3620 h1         1 XFA       0.067450
     53 H15         -1.6800    -4.5710     6.9330 h1         1 XFA       0.067450
     54 H16         -0.9670    -4.8760     5.3020 h1         1 XFA       0.067450
     55 H17          2.9350    -4.5920     8.8270 ha         1 XFA       0.132500
     56 H18          3.2370    -7.0390     8.8040 ha         1 XFA       0.135000
     57 H19          1.6340    -8.4670     7.5910 ha         1 XFA       0.135000
     58 H20         -0.2700    -7.4500     6.4030 ha         1 XFA       0.132500
     59 H21         -0.8310     1.1710     5.3650 h1         1 XFA       0.061200
     60 H22          0.6390     1.4320     4.4160 h1         1 XFA       0.061200
     61 H23         -0.4960     3.8150     5.0240 hn         1 XFA       0.307500
     62 H24         -1.2250     4.8770     2.4770 h1         1 XFA       0.059200
     63 H25         -2.6950     4.6160     3.4250 h1         1 XFA       0.059200
     64 H26         -0.2870     6.2510     4.3080 h1         1 XFA       0.033700
     65 H27         -1.7580     5.9900     5.2560 h1         1 XFA       0.033700
     66 H28         -1.6400     7.2790     2.6370 hn         1 XFA       0.354800
     67 H30         -2.1610     8.3920     5.2890 h1         1 XFA       0.032033
     68 H31         -2.2470     9.2790     3.7610 h1         1 XFA       0.032033
     69 H32         -0.6940     8.6560     4.3350 h1         1 XFA       0.032033
@<TRIPOS>BOND
     1    15     7 1
     2    37    36 1
     3     7     8 ar
     4     7     6 ar
     5     8    14 ar
     6    36    35 1
     7     6     5 ar
     8    35    34 1
     9    14     4 ar
    10    21    19 1
    11    34    33 1
    12     5     4 ar
    13    22    18 2
    14     4    13 1
    15    33    32 1
    16    19    18 1
    17    19    20 1
    18    18    17 1
    19    13    10 1
    20    32    38 2
    21    32    31 1
    22    10     1 ar
    23    10     2 ar
    24     1     9 ar
    25    20    26 1
    26    20    23 1
    27    26    25 1
    28    17    16 1
    29    16     2 1
    30    16    31 1
    31     2    11 ar
    32    23    24 1
    33     9     3 ar
    34    25    24 ar
    35    25    30 ar
    36    11     3 ar
    37     3    12 1
    38    24    27 ar
    39    30    29 ar
    40    27    28 ar
    41    29    28 ar
    42     1    39 1
    43     5    40 1
    44     6    41 1
    45     8    42 1
    46     9    43 1
    47    11    44 1
    48    14    45 1
    49    17    46 1
    50    17    47 1
    51    21    48 1
    52    21    49 1
    53    21    50 1
    54    23    51 1
    55    23    52 1
    56    26    53 1
    57    26    54 1
    58    27    55 1
    59    28    56 1
    60    29    57 1
    61    30    58 1
    62    31    59 1
    63    31    60 1
    64    33    61 1
    65    34    62 1
    66    34    63 1
    67    35    64 1
    68    35    65 1
    69    36    66 1
    70    37    67 1
    71    37    68 1
    72    37    69 1
@<TRIPOS>SUBSTRUCTURE
     1 XFA         1 TEMP              0 ****  ****    0 ROOT
