@<TRIPOS>MOLECULE
XFE
   32    34     1     0     0
SMALL
bcc


@<TRIPOS>ATOM
      1 C1           0.0000     0.0000     0.0000 c3         1 XFE      -0.107500
      2 C2           1.5460     0.0000     0.0000 c3         1 XFE      -0.024400
      3 C3           1.9470     0.0000     1.4860 c3         1 XFE       0.102800
      4 N4           0.6960     0.0300     2.2740 nh         1 XFE      -0.443300
      5 C5          -0.3510    -0.5620     1.3990 c3         1 XFE       0.146800
      6 C6           0.8300    -0.6920     3.4460 ca         1 XFE       0.545200
      7 N7           0.0440    -1.7340     3.7000 nb         1 XFE      -0.720000
      8 C8           0.1700    -2.4250     4.8190 ca         1 XFE       0.660900
      9 N9           1.0650    -2.1340     5.7380 nb         1 XFE      -0.606000
     10 C10          1.8040    -0.3460     4.3960 ca         1 XFE      -0.345400
     11 C11          1.8980    -1.1080     5.5750 ca         1 XFE       0.273800
     12 N12          2.9070    -0.5690     6.3250 na         1 XFE       0.295900
     13 C13          3.4530     0.5070     5.6730 cc         1 XFE      -0.247100
     14 C14          2.8340     0.6880     4.4950 cd         1 XFE      -0.126400
     15 C15          3.1320     1.7590     3.4780 c3         1 XFE       0.083100
     16 N16         -0.5190    -0.8770    -1.0580 nz         1 XFE       0.089400
     17 H1          -0.3800     1.0090    -0.1100 hx         1 XFE       0.107700
     18 H2           1.9200     0.8910    -0.4890 hc         1 XFE       0.038200
     19 H2A          1.9200    -0.8910    -0.4890 hc         1 XFE       0.038200
     20 H3           2.5420     0.8780     1.7070 h1         1 XFE       0.063700
     21 H3A          2.5060    -0.8990     1.7170 h1         1 XFE       0.063700
     22 H5          -0.2840    -1.6430     1.4030 h1         1 XFE       0.052200
     23 H5A         -1.3350    -0.2310     1.7070 h1         1 XFE       0.052200
     24 H8          -0.4910    -3.2670     4.9860 h5         1 XFE       0.007100
     25 H13          4.2620     1.1190     6.0510 h4         1 XFE       0.157000
     26 H15          3.7820     1.3570     2.7110 hc         1 XFE       0.014033
     27 H15A         3.6210     2.5940     3.9650 hc         1 XFE       0.014033
     28 H15B         2.2060     2.0960     3.0270 hc         1 XFE       0.014033
     29 HN16        -0.2360    -0.5260    -1.9510 hn         1 XFE       0.224133
     30 HN1A        -1.5190    -0.9010    -1.0110 hn         1 XFE       0.224133
     31 HN12         3.1980    -0.9050     7.2220 hn         1 XFE       0.132700
     32 H163        -0.1580    -1.8020    -0.9320 hn         1 XFE       0.224133
@<TRIPOS>BOND
     1     1     2 1   
     2     1     5 1   
     3     1    16 1   
     4     1    17 1   
     5     2     3 1   
     6     2    18 1   
     7     2    19 1   
     8     3     4 1   
     9     3    20 1   
    10     3    21 1   
    11     4     5 1   
    12     4     6 1   
    13     5    22 1   
    14     5    23 1   
    15     6     7 ar  
    16     6    10 ar  
    17     7     8 ar  
    18     8     9 ar  
    19     8    24 1   
    20     9    11 ar  
    21    10    11 ar  
    22    10    14 1   
    23    11    12 1   
    24    12    13 1   
    25    12    31 1   
    26    13    14 2   
    27    13    25 1   
    28    14    15 1   
    29    15    26 1   
    30    15    27 1   
    31    15    28 1   
    32    16    29 1   
    33    16    30 1   
    34    16    32 1   
@<TRIPOS>SUBSTRUCTURE
     1 XFE         1 TEMP              0 ****  ****    0 ROOT
