@<TRIPOS>MOLECULE
molecule
   52    54     1     0     0
SMALL
bcc


@<TRIPOS>ATOM
      1 N01          0.0000     0.0000     0.0000 nb         1 XFH      -0.720000
      2 C02          1.3240     0.0000     0.0000 ca         1 XFH       0.683200
      3 N02          2.0120     0.0010    -1.2080 nv         1 XFH      -1.084500
      4 C03          2.0330     0.0000     1.1970 ca         1 XFH      -0.264300
      5 C04          1.3360    -0.0000     2.3910 ca         1 XFH      -0.043300
      6 C05         -0.0530    -0.0010     2.3490 ca         1 XFH      -0.259300
      7 C06         -0.6910     0.0000     1.1250 ca         1 XFH       0.438600
      8 C07          2.0660    -0.0010     3.7090 c3         1 XFH      -0.049800
      9 C08         -2.1970    -0.0000     1.0720 c3         1 XFH      -0.124700
     10 C09         -2.6780     1.1810     0.2280 c3         1 XFH      -0.029100
     11 C11         -6.2800     1.7850     1.2680 ca         1 XFH      -0.124000
     12 C12         -4.8980     1.8010     1.2800 ca         1 XFH      -0.128000
     13 C13         -4.1900     1.1440     0.2900 ca         1 XFH      -0.082300
     14 C14         -4.8640     0.4730    -0.7130 ca         1 XFH      -0.122000
     15 C15         -6.2480     0.4590    -0.7250 ca         1 XFH      -0.083300
     16 C16         -6.9540     1.1150     0.2650 ca         1 XFH      -0.129000
     17 C17         -6.9830    -0.2730    -1.8190 c3         1 XFH      -0.027100
     18 C18         -7.2270    -1.7210    -1.3890 c3         1 XFH      -0.033100
     19 C21         -9.3230    -2.6080    -2.5150 ca         1 XFH      -0.328300
     20 C22         -9.9310    -3.3490    -3.5230 ca         1 XFH       0.710200
     21 N22        -11.3170    -3.4360    -3.5750 nv         1 XFH      -1.014500
     22 N23         -9.2000    -4.0080    -4.4090 nb         1 XFH      -0.770000
     23 C24         -7.8810    -3.9890    -4.3680 ca         1 XFH       0.478600
     24 C25         -7.2120    -3.2740    -3.3950 ca         1 XFH      -0.311300
     25 C26         -7.9420    -2.5640    -2.4510 ca         1 XFH      -0.005300
     26 HN02         2.2750     0.8680    -1.6340 hn         1 XFH       0.434800
     27 HN0A         2.2230    -0.8650    -1.6640 hn         1 XFH       0.434800
     28 H03          3.1160     0.0000     1.1940 ha         1 XFH       0.142000
     29 H05         -0.6280    -0.0010     3.2670 ha         1 XFH       0.138000
     30 H07          2.5840     0.9420     3.8360 hc         1 XFH       0.047367
     31 H07A         1.3550    -0.1330     4.5160 hc         1 XFH       0.047367
     32 H07B         2.7830    -0.8120     3.7250 hc         1 XFH       0.047367
     33 H08         -2.5430    -0.9260     0.6280 hc         1 XFH       0.057700
     34 H08A        -2.5940     0.0890     2.0770 hc         1 XFH       0.057700
     35 H09         -2.3320     2.1070     0.6720 hc         1 XFH       0.062200
     36 H09A        -2.2810     1.0920    -0.7770 hc         1 XFH       0.062200
     37 H11         -6.8340     2.2990     2.0440 ha         1 XFH       0.129000
     38 H12         -4.3690     2.3250     2.0670 ha         1 XFH       0.129000
     39 H14         -4.3110    -0.0050    -1.5120 ha         1 XFH       0.136000
     40 H16         -8.0370     1.1030     0.2550 ha         1 XFH       0.128000
     41 H17         -7.9330     0.2140    -2.0030 hc         1 XFH       0.052700
     42 H17A        -6.3890    -0.2600    -2.7250 hc         1 XFH       0.052700
     43 H18         -6.2770    -2.2080    -1.2050 hc         1 XFH       0.052700
     44 H18A        -7.8200    -1.7330    -0.4830 hc         1 XFH       0.052700
     45 H21         -9.9210    -1.9670    -1.8790 ha         1 XFH       0.133000
     46 HN22       -11.8730    -2.9750    -2.8820 hn         1 XFH       0.438300
     47 HN2A       -11.7590    -3.9680    -4.2980 hn         1 XFH       0.438300
     48 H25         -6.1290    -3.2650    -3.3700 ha         1 XFH       0.137000
     49 H27         -6.5030    -5.5200    -4.9090 hc         1 XFH       0.051700
     50 H27A        -7.7760    -5.2230    -6.1010 hc         1 XFH       0.051700
     51 H27B        -6.4370    -4.0790    -5.9310 hc         1 XFH       0.051700
     52 C27         -7.0940    -4.7570    -5.4000 c3         1 XFH      -0.142400
@<TRIPOS>BOND
     1     2     1 ar
     2     7     1 ar
     3     4     2 ar
     4     2     3 1
     5     3    26 1
     6     3    27 1
     7     5     4 ar
     8     4    28 1
     9     8     5 1
    10     5     6 ar
    11     6     7 ar
    12     6    29 1
    13     7     9 1
    14     8    30 1
    15     8    31 1
    16     8    32 1
    17     9    10 1
    18     9    33 1
    19     9    34 1
    20    10    13 1
    21    10    35 1
    22    10    36 1
    23    12    11 ar
    24    11    16 ar
    25    11    37 1
    26    13    12 ar
    27    12    38 1
    28    13    14 ar
    29    14    15 ar
    30    14    39 1
    31    15    17 1
    32    15    16 ar
    33    16    40 1
    34    17    18 1
    35    17    41 1
    36    17    42 1
    37    25    18 1
    38    18    43 1
    39    18    44 1
    40    25    19 ar
    41    20    19 ar
    42    19    45 1
    43    22    20 ar
    44    20    21 1
    45    21    46 1
    46    21    47 1
    47    23    22 ar
    48    52    23 1
    49    23    24 ar
    50    24    25 ar
    51    24    48 1
    52    52    49 1
    53    52    50 1
    54    52    51 1
@<TRIPOS>SUBSTRUCTURE
     1 XFH         1 TEMP              0 ****  ****    0 ROOT
