@<TRIPOS>MOLECULE
XFI
   85    88     1     0     0
SMALL
bcc


@<TRIPOS>ATOM
      1 C1           0.0000     0.0000     0.0000 c3         1 XFI      -0.001100
      2 C2           1.5300     0.0000     0.0000 c3         1 XFI       0.047500
      3 N3           2.0200     0.0000     1.3840 n7         1 XFI      -0.566200
      4 C4           2.0830    -1.3660     1.9210 c3         1 XFI       0.111800
      5 C5           2.5980    -1.3240     3.3620 c3         1 XFI       0.182100
      6 O6           1.6530    -0.6390     4.1850 oh         1 XFI      -0.576800
      7 C7           2.7820    -2.7530     3.8780 c3         1 XFI       0.008700
      8 C8           1.4210    -3.4480     3.9530 c3         1 XFI       0.011900
      9 C9           1.6140    -4.8900     4.3440 ca         1 XFI      -0.075300
     10 C10          1.6130    -5.2510     5.6780 ca         1 XFI      -0.093000
     11 C11          1.7900    -6.5740     6.0370 ca         1 XFI      -0.091500
     12 C12          1.9680    -7.5370     5.0610 ca         1 XFI      -0.101000
     13 C13          1.9690    -7.1760     3.7270 ca         1 XFI      -0.091500
     14 C14          1.7870    -5.8540     3.3680 ca         1 XFI      -0.093000
     15 N15          3.3850    -2.7150     5.2130 ns         1 XFI      -0.192900
     16 C16          4.0940    -3.7700     5.6610 c          1 XFI       0.592700
     17 O17          4.2310    -4.7530     4.9590 o          1 XFI      -0.637100
     18 C18          4.7030    -3.7330     7.0080 ca         1 XFI      -0.125600
     19 C19          4.5460    -2.6050     7.8160 ca         1 XFI      -0.117000
     20 C20          5.1160    -2.5720     9.0730 ca         1 XFI      -0.071000
     21 C21          5.8420    -3.6530     9.5360 ca         1 XFI      -0.134000
     22 C22          6.0040    -4.7800     8.7390 ca         1 XFI       0.076600
     23 C23          5.4310    -4.8260     7.4770 ca         1 XFI      -0.074000
     24 N24          6.7400    -5.8700     9.2120 nh         1 XFI      -0.190300
     25 C25          6.4960    -7.1500     8.7080 ca         1 XFI       0.033600
     26 C26          7.4890    -7.8220     8.0060 ca         1 XFI      -0.087500
     27 C27          7.2450    -9.0870     7.5070 ca         1 XFI      -0.093000
     28 C28          6.0130    -9.6830     7.7070 ca         1 XFI      -0.093000
     29 C29          5.0220    -9.0170     8.4030 ca         1 XFI      -0.093000
     30 C30          5.2620    -7.7550     8.9090 ca         1 XFI      -0.087500
     31 S31          7.9010    -5.6460    10.3720 s6         1 XFI       0.953900
     32 C32          6.9890    -5.6810    11.9390 c3         1 XFI      -0.002300
     33 O33          8.7390    -6.7870    10.2550 o          1 XFI      -0.575800
     34 O34          8.4030    -4.3400    10.1170 o          1 XFI      -0.575800
     35 C35          2.0320     1.2300    -0.7110 c          1 XFI       0.572100
     36 O36          2.7290     2.0290    -0.1220 o          1 XFI      -0.643100
     37 N37          1.7060     1.4430    -2.0020 ns         1 XFI      -0.187900
     38 C38          2.1930     2.6390    -2.6930 c3         1 XFI       0.016700
     39 C39          2.2440     2.3740    -4.1980 c3         1 XFI      -0.039900
     40 C40          2.7540     3.6230    -4.9210 c3         1 XFI      -0.017400
     41 C41          1.8090     4.7930    -4.6420 c3         1 XFI      -0.028400
     42 C42          1.7590     5.0600    -3.1350 c3         1 XFI      -0.017400
     43 C43          1.2500     3.8100    -2.4130 c3         1 XFI      -0.039900
     44 H11C        -0.3610     0.8830    -0.5130 hc         1 XFI       0.014033
     45 H12C        -0.3610    -0.8860    -0.5080 hc         1 XFI       0.014033
     46 H13C        -0.3610     0.0030     1.0210 hc         1 XFI       0.014033
     47 H2           1.8910    -0.8840    -0.5110 h1         1 XFI       0.017700
     48 H3           2.9310     0.4130     1.4160 hn         1 XFI       0.277800
     49 H41C         2.7560    -1.9610     1.3140 h1         1 XFI       0.021200
     50 H42C         1.0940    -1.8070     1.9030 h1         1 XFI       0.021200
     51 H5           3.5470    -0.8040     3.3920 h1         1 XFI       0.006700
     52 H6           2.0200     0.1810     4.4690 ho         1 XFI       0.395000
     53 H7           3.4300    -3.3000     3.2040 h1         1 XFI       0.062700
     54 H81C         0.9360    -3.3980     2.9860 hc         1 XFI       0.032700
     55 H82C         0.8030    -2.9530     4.6930 hc         1 XFI       0.032700
     56 H15          3.3020    -1.8930     5.7760 hn         1 XFI       0.181500
     57 H10          1.4730    -4.4960     6.4430 ha         1 XFI       0.098500
     58 H14          1.7880    -5.5710     2.3220 ha         1 XFI       0.098500
     59 H11          1.7890    -6.8560     7.0830 ha         1 XFI       0.096000
     60 H12          2.1090    -8.5740     5.3420 ha         1 XFI       0.096000
     61 H13          2.1070    -7.9310     2.9620 ha         1 XFI       0.096000
     62 H19          3.9770    -1.7560     7.4570 ha         1 XFI       0.103000
     63 H23          5.5560    -5.7030     6.8540 ha         1 XFI       0.145000
     64 H20          4.9930    -1.6960     9.6990 ha         1 XFI       0.104000
     65 H21          6.2890    -3.6200    10.5220 ha         1 XFI       0.118000
     66 H26          8.4540    -7.3550     7.8500 ha         1 XFI       0.116000
     67 H30          4.4850    -7.2330     9.4550 ha         1 XFI       0.116000
     68 H27          8.0180    -9.6120     6.9610 ha         1 XFI       0.104500
     69 H28          5.8230   -10.6740     7.3130 ha         1 XFI       0.102000
     70 H29          4.0590    -9.4880     8.5580 ha         1 XFI       0.104500
     71 H321         7.3410    -4.8820    12.5800 h1         1 XFI       0.068033
     72 H322         7.1500    -6.6340    12.4290 h1         1 XFI       0.068033
     73 H323         5.9320    -5.5490    11.7450 h1         1 XFI       0.068033
     74 H37          1.1690     0.7610    -2.5010 hn         1 XFI       0.175500
     75 H38          3.1870     2.8860    -2.3380 h1         1 XFI       0.058700
     76 H391         1.2500     2.1330    -4.5550 hc         1 XFI       0.020200
     77 H392         2.9140     1.5460    -4.3950 hc         1 XFI       0.020200
     78 H431         1.2160     3.9990    -1.3470 hc         1 XFI       0.020200
     79 H432         0.2570     3.5670    -2.7730 hc         1 XFI       0.020200
     80 H401         3.7460     3.8670    -4.5600 hc         1 XFI       0.016950
     81 H402         2.7870     3.4340    -5.9870 hc         1 XFI       0.016950
     82 H411         0.8160     4.5470    -4.9970 hc         1 XFI       0.014200
     83 H412         2.1720     5.6780    -5.1510 hc         1 XFI       0.014200
     84 H421         1.0880     5.8870    -2.9380 hc         1 XFI       0.016950
     85 H422         2.7530     5.3010    -2.7780 hc         1 XFI       0.016950
@<TRIPOS>BOND
     1     1     2 1   
     2     1    44 1   
     3     1    45 1   
     4     1    46 1   
     5     2     3 1   
     6     2    35 1   
     7     2    47 1   
     8     3     4 1   
     9     3    48 1   
    10     4     5 1   
    11     4    49 1   
    12     4    50 1   
    13     5     6 1   
    14     5     7 1   
    15     5    51 1   
    16     6    52 1   
    17     7     8 1   
    18     7    15 1   
    19     7    53 1   
    20     8     9 1   
    21     8    54 1   
    22     8    55 1   
    23     9    10 ar  
    24     9    14 ar  
    25    10    11 ar  
    26    10    57 1   
    27    11    12 ar  
    28    11    59 1   
    29    12    13 ar  
    30    12    60 1   
    31    13    14 ar  
    32    13    61 1   
    33    14    58 1   
    34    15    16 1   
    35    15    56 1   
    36    16    17 2   
    37    16    18 1   
    38    18    19 ar  
    39    18    23 ar  
    40    19    20 ar  
    41    19    62 1   
    42    20    21 ar  
    43    20    64 1   
    44    21    22 ar  
    45    21    65 1   
    46    22    23 ar  
    47    22    24 1   
    48    23    63 1   
    49    24    25 1   
    50    24    31 1   
    51    25    26 ar  
    52    25    30 ar  
    53    26    27 ar  
    54    26    66 1   
    55    27    28 ar  
    56    27    68 1   
    57    28    29 ar  
    58    28    69 1   
    59    29    30 ar  
    60    29    70 1   
    61    30    67 1   
    62    31    32 1   
    63    31    33 2   
    64    31    34 2   
    65    32    71 1   
    66    32    72 1   
    67    32    73 1   
    68    35    36 2   
    69    35    37 1   
    70    37    38 1   
    71    37    74 1   
    72    38    39 1   
    73    38    43 1   
    74    38    75 1   
    75    39    40 1   
    76    39    76 1   
    77    39    77 1   
    78    40    41 1   
    79    40    80 1   
    80    40    81 1   
    81    41    42 1   
    82    41    82 1   
    83    41    83 1   
    84    42    43 1   
    85    42    84 1   
    86    42    85 1   
    87    43    78 1   
    88    43    79 1   
@<TRIPOS>SUBSTRUCTURE
     1 XFI         1 TEMP              0 ****  ****    0 ROOT
