@<TRIPOS>MOLECULE
molecule
   85    88     1     0     0
SMALL
bcc


@<TRIPOS>ATOM
      1 C1           0.0000     0.0000     0.0000 c3         1 XFI      -0.089100
      2 C2           1.5300     0.0000     0.0000 c3         1 XFI       0.092500
      3 N3           2.0200     0.0000     1.3840 n7         1 XFI      -0.800200
      4 C4           2.0830    -1.3660     1.9210 c3         1 XFI       0.139800
      5 C5           2.5980    -1.3240     3.3620 c3         1 XFI       0.135100
      6 O6           1.6530    -0.6390     4.1850 oh         1 XFI      -0.595800
      7 C7           2.7820    -2.7530     3.8780 c3         1 XFI       0.116700
      8 C8           1.4210    -3.4480     3.9530 c3         1 XFI      -0.045100
      9 C9           1.6140    -4.8900     4.3440 ca         1 XFI      -0.069300
     10 C10          1.6130    -5.2510     5.6780 ca         1 XFI      -0.117000
     11 C11          1.7900    -6.5740     6.0370 ca         1 XFI      -0.120000
     12 C12          1.9680    -7.5370     5.0610 ca         1 XFI      -0.127000
     13 C13          1.9690    -7.1760     3.7270 ca         1 XFI      -0.120000
     14 C14          1.7870    -5.8540     3.3680 ca         1 XFI      -0.117000
     15 N15          3.3850    -2.7150     5.2130 ns         1 XFI      -0.578900
     16 C16          4.0940    -3.7700     5.6610 c          1 XFI       0.670700
     17 O17          4.2310    -4.7530     4.9590 o          1 XFI      -0.592100
     18 C18          4.7030    -3.7330     7.0080 ca         1 XFI      -0.118600
     19 C19          4.5460    -2.6050     7.8160 ca         1 XFI      -0.132000
     20 C20          5.1160    -2.5720     9.0730 ca         1 XFI      -0.102000
     21 C21          5.8420    -3.6530     9.5360 ca         1 XFI      -0.148000
     22 C22          6.0040    -4.7800     8.7390 ca         1 XFI       0.155600
     23 C23          5.4310    -4.8260     7.4770 ca         1 XFI      -0.089000
     24 N24          6.7400    -5.8700     9.2120 nh         1 XFI      -0.534300
     25 C25          6.4960    -7.1500     8.7080 ca         1 XFI       0.109600
     26 C26          7.4890    -7.8220     8.0060 ca         1 XFI      -0.109000
     27 C27          7.2450    -9.0870     7.5070 ca         1 XFI      -0.122000
     28 C28          6.0130    -9.6830     7.7070 ca         1 XFI      -0.117000
     29 C29          5.0220    -9.0170     8.4030 ca         1 XFI      -0.122000
     30 C30          5.2620    -7.7550     8.9090 ca         1 XFI      -0.109000
     31 S31          7.9010    -5.6460    10.3720 s6         1 XFI       1.319900
     32 C32          6.9890    -5.6810    11.9390 c3         1 XFI      -0.254300
     33 O33          8.7390    -6.7870    10.2550 o          1 XFI      -0.613300
     34 O34          8.4030    -4.3400    10.1170 o          1 XFI      -0.613300
     35 C35          2.0320     1.2300    -0.7110 c          1 XFI       0.657100
     36 O36          2.7290     2.0290    -0.1220 o          1 XFI      -0.606100
     37 N37          1.7060     1.4430    -2.0020 ns         1 XFI      -0.581900
     38 C38          2.1930     2.6390    -2.6930 c3         1 XFI       0.117700
     39 C39          2.2440     2.3740    -4.1980 c3         1 XFI      -0.093400
     40 C40          2.7540     3.6230    -4.9210 c3         1 XFI      -0.076900
     41 C41          1.8090     4.7930    -4.6420 c3         1 XFI      -0.083400
     42 C42          1.7590     5.0600    -3.1350 c3         1 XFI      -0.076900
     43 C43          1.2500     3.8100    -2.4130 c3         1 XFI      -0.093400
     44 H11C        -0.3610     0.8830    -0.5130 hc         1 XFI       0.048367
     45 H12C        -0.3610    -0.8860    -0.5080 hc         1 XFI       0.048367
     46 H13C        -0.3610     0.0030     1.0210 hc         1 XFI       0.048367
     47 H2           1.8910    -0.8840    -0.5110 h1         1 XFI       0.037700
     48 H3           2.9310     0.4130     1.4160 hn         1 XFI       0.374800
     49 H41C         2.7560    -1.9610     1.3140 h1         1 XFI       0.044700
     50 H42C         1.0940    -1.8070     1.9030 h1         1 XFI       0.044700
     51 H5           3.5470    -0.8040     3.3920 h1         1 XFI       0.040700
     52 H6           2.0200     0.1810     4.4690 ho         1 XFI       0.408000
     53 H7           3.4300    -3.3000     3.2040 h1         1 XFI       0.085700
     54 H81C         0.9360    -3.3980     2.9860 hc         1 XFI       0.060700
     55 H82C         0.8030    -2.9530     4.6930 hc         1 XFI       0.060700
     56 H15          3.3020    -1.8930     5.7760 hn         1 XFI       0.317500
     57 H10          1.4730    -4.4960     6.4430 ha         1 XFI       0.123000
     58 H14          1.7880    -5.5710     2.3220 ha         1 XFI       0.123000
     59 H11          1.7890    -6.8560     7.0830 ha         1 XFI       0.122500
     60 H12          2.1090    -8.5740     5.3420 ha         1 XFI       0.122000
     61 H13          2.1070    -7.9310     2.9620 ha         1 XFI       0.122500
     62 H19          3.9770    -1.7560     7.4570 ha         1 XFI       0.127000
     63 H23          5.5560    -5.7030     6.8540 ha         1 XFI       0.173000
     64 H20          4.9930    -1.6960     9.6990 ha         1 XFI       0.138000
     65 H21          6.2890    -3.6200    10.5220 ha         1 XFI       0.133000
     66 H26          8.4540    -7.3550     7.8500 ha         1 XFI       0.143000
     67 H30          4.4850    -7.2330     9.4550 ha         1 XFI       0.143000
     68 H27          8.0180    -9.6120     6.9610 ha         1 XFI       0.136000
     69 H28          5.8230   -10.6740     7.3130 ha         1 XFI       0.132000
     70 H29          4.0590    -9.4880     8.5580 ha         1 XFI       0.136000
     71 H321         7.3410    -4.8820    12.5800 h1         1 XFI       0.102033
     72 H322         7.1500    -6.6340    12.4290 h1         1 XFI       0.102033
     73 H323         5.9320    -5.5490    11.7450 h1         1 XFI       0.102033
     74 H37          1.1690     0.7610    -2.5010 hn         1 XFI       0.313500
     75 H38          3.1870     2.8860    -2.3380 h1         1 XFI       0.079700
     76 H391         1.2500     2.1330    -4.5550 hc         1 XFI       0.047700
     77 H392         2.9140     1.5460    -4.3950 hc         1 XFI       0.047700
     78 H431         1.2160     3.9990    -1.3470 hc         1 XFI       0.047700
     79 H432         0.2570     3.5670    -2.7730 hc         1 XFI       0.047700
     80 H401         3.7460     3.8670    -4.5600 hc         1 XFI       0.045450
     81 H402         2.7870     3.4340    -5.9870 hc         1 XFI       0.045450
     82 H411         0.8160     4.5470    -4.9970 hc         1 XFI       0.042200
     83 H412         2.1720     5.6780    -5.1510 hc         1 XFI       0.042200
     84 H421         1.0880     5.8870    -2.9380 hc         1 XFI       0.045450
     85 H422         2.7530     5.3010    -2.7780 hc         1 XFI       0.045450
@<TRIPOS>BOND
     1     1     2 1
     2     2     3 1
     3     2    35 1
     4     3     4 1
     5     4     5 1
     6     5     6 1
     7     5     7 1
     8     7     8 1
     9     7    15 1
    10     8     9 1
    11     9    10 ar
    12     9    14 ar
    13    10    11 ar
    14    11    12 ar
    15    12    13 ar
    16    13    14 ar
    17    15    16 1
    18    16    17 2
    19    16    18 1
    20    18    19 ar
    21    18    23 ar
    22    19    20 ar
    23    20    21 ar
    24    21    22 ar
    25    22    23 ar
    26    22    24 1
    27    24    25 1
    28    24    31 1
    29    25    26 ar
    30    25    30 ar
    31    26    27 ar
    32    27    28 ar
    33    28    29 ar
    34    29    30 ar
    35    31    32 1
    36    31    33 2
    37    31    34 2
    38    35    36 2
    39    35    37 1
    40    37    38 1
    41    38    39 1
    42    38    43 1
    43    39    40 1
    44    40    41 1
    45    41    42 1
    46    42    43 1
    47     1    44 1
    48     1    45 1
    49     1    46 1
    50     2    47 1
    51     3    48 1
    52     4    49 1
    53     4    50 1
    54     5    51 1
    55     6    52 1
    56     7    53 1
    57     8    54 1
    58     8    55 1
    59    15    56 1
    60    10    57 1
    61    14    58 1
    62    11    59 1
    63    12    60 1
    64    13    61 1
    65    19    62 1
    66    23    63 1
    67    20    64 1
    68    21    65 1
    69    26    66 1
    70    30    67 1
    71    27    68 1
    72    28    69 1
    73    29    70 1
    74    32    71 1
    75    32    72 1
    76    32    73 1
    77    37    74 1
    78    38    75 1
    79    39    76 1
    80    39    77 1
    81    43    78 1
    82    43    79 1
    83    40    80 1
    84    40    81 1
    85    41    82 1
    86    41    83 1
    87    42    84 1
    88    42    85 1
@<TRIPOS>SUBSTRUCTURE
     1 XFI         1 TEMP              0 ****  ****    0 ROOT
