@<TRIPOS>MOLECULE
XFJ
   51    53     1     0     0
SMALL
bcc


@<TRIPOS>ATOM
      1 N01          0.0000     0.0000     0.0000 nb         1 XFJ      -0.636000
      2 C02          1.3240     0.0000     0.0000 ca         1 XFJ       0.510700
      3 N02          2.0130    -0.0000    -1.2070 nv         1 XFJ      -0.569500
      4 C03          2.0310     0.0000     1.1980 ca         1 XFJ      -0.289800
      5 C04          1.3330    -0.0010     2.3920 ca         1 XFJ      -0.017300
      6 C05         -0.0550    -0.0010     2.3480 ca         1 XFJ      -0.270800
      7 C06         -0.6930    -0.0010     1.1230 ca         1 XFJ       0.414600
      8 C07          2.0620    -0.0010     3.7110 c3         1 XFJ       0.060700
      9 C08         -2.1980    -0.0010     1.0690 c3         1 XFJ      -0.069700
     10 C09         -2.6780     1.1810     0.2240 c3         1 XFJ       0.042400
     11 N11         -6.2260     1.7850     1.2650 nb         1 XFJ      -0.580000
     12 C12         -4.9080     1.7950     1.2710 ca         1 XFJ       0.399700
     13 C13         -4.1910     1.1430     0.2870 ca         1 XFJ      -0.207100
     14 C14         -4.8760     0.4730    -0.7160 ca         1 XFJ      -0.069000
     15 C15         -6.2620     0.4850    -0.6900 ca         1 XFJ      -0.207100
     16 C16         -6.9110     1.1600     0.3270 ca         1 XFJ       0.399700
     17 C17         -7.0520    -0.2280    -1.7580 c3         1 XFJ       0.042400
     18 C18         -7.3150    -1.6700    -1.3200 c3         1 XFJ      -0.069700
     19 N21         -9.2210    -2.0190    -2.8460 nb         1 XFJ      -0.636000
     20 C22         -9.9020    -2.6770    -3.7710 ca         1 XFJ       0.510700
     21 N22        -11.1150    -2.1720    -4.2250 nv         1 XFJ      -0.569500
     22 C23         -9.4420    -3.8990    -4.2540 ca         1 XFJ      -0.289800
     23 C24         -8.2610    -4.4180    -3.7540 ca         1 XFJ      -0.017300
     24 C25         -7.5790    -3.6960    -2.7830 ca         1 XFJ      -0.270800
     25 C26         -8.0930    -2.4890    -2.3510 ca         1 XFJ       0.414600
     26 HN02         2.7140    -0.6930    -1.3830 hn         1 XFJ       0.271300
     27 HN0A         1.8270     0.7080    -1.8890 hn         1 XFJ       0.271300
     28 H03          3.1150     0.0000     1.1960 ha         1 XFJ       0.119000
     29 H05         -0.6320    -0.0020     3.2650 ha         1 XFJ       0.119500
     30 H07          1.5790     0.6910     4.3900 hc         1 XFJ       0.010200
     31 H07A         2.0400    -0.9970     4.1350 hc         1 XFJ       0.010200
     32 H07B         3.0900     0.3030     3.5550 hc         1 XFJ       0.010200
     33 H08         -2.5960     0.0880     2.0730 hc         1 XFJ       0.023450
     34 H08A        -2.5440    -0.9260     0.6240 hc         1 XFJ       0.023450
     35 H09         -2.3320     2.1070     0.6680 hc         1 XFJ       0.028200
     36 H09A        -2.2810     1.0920    -0.7800 hc         1 XFJ       0.028200
     37 H12         -4.3810     2.3200     2.0580 h4         1 XFJ      -0.017900
     38 H14         -4.3420    -0.0110    -1.5240 ha         1 XFJ       0.118000
     39 H16         -7.9940     1.1740     0.3550 h4         1 XFJ      -0.017900
     40 H17         -6.4890    -0.2280    -2.6830 hc         1 XFJ       0.028200
     41 H17A        -7.9960     0.2810    -1.9090 hc         1 XFJ       0.028200
     42 H18         -7.8780    -1.6700    -0.3950 hc         1 XFJ       0.023450
     43 H18A        -6.3710    -2.1800    -1.1690 hc         1 XFJ       0.023450
     44 HN22       -11.6130    -2.6460    -4.9530 hn         1 XFJ       0.271300
     45 HN2A       -11.4810    -1.3250    -3.8370 hn         1 XFJ       0.271300
     46 H23        -10.0000    -4.4350    -5.0110 ha         1 XFJ       0.119000
     47 H25         -6.6520    -4.0740    -2.3710 ha         1 XFJ       0.119500
     48 H27         -8.5270    -6.2930    -4.7260 hc         1 XFJ       0.010200
     49 H27A        -6.9330    -5.5620    -4.9620 hc         1 XFJ       0.010200
     50 H27B        -7.3430    -6.3080    -3.4110 hc         1 XFJ       0.010200
     51 C27         -7.7290    -5.7380    -4.2480 c3         1 XFJ       0.060700
@<TRIPOS>BOND
     1     1     2 ar  
     2     1     7 ar  
     3     2     3 1   
     4     2     4 ar  
     5     3    26 1   
     6     3    27 1   
     7     4     5 ar  
     8     4    28 1   
     9     5     6 ar  
    10     5     8 1   
    11     6     7 ar  
    12     6    29 1   
    13     7     9 1   
    14     8    30 1   
    15     8    31 1   
    16     8    32 1   
    17     9    10 1   
    18     9    33 1   
    19     9    34 1   
    20    10    13 1   
    21    10    35 1   
    22    10    36 1   
    23    11    12 ar  
    24    11    16 ar  
    25    12    13 ar  
    26    12    37 1   
    27    13    14 ar  
    28    14    15 ar  
    29    14    38 1   
    30    15    16 ar  
    31    15    17 1   
    32    16    39 1   
    33    17    18 1   
    34    17    40 1   
    35    17    41 1   
    36    18    25 1   
    37    18    42 1   
    38    18    43 1   
    39    19    20 ar  
    40    19    25 ar  
    41    20    21 1   
    42    20    22 ar  
    43    21    44 1   
    44    21    45 1   
    45    22    23 ar  
    46    22    46 1   
    47    23    24 ar  
    48    23    51 1   
    49    24    25 ar  
    50    24    47 1   
    51    48    51 1   
    52    49    51 1   
    53    50    51 1   
@<TRIPOS>SUBSTRUCTURE
     1 XFJ         1 TEMP              0 ****  ****    0 ROOT
