@<TRIPOS>MOLECULE
molecule
   51    53     1     0     0
SMALL
bcc


@<TRIPOS>ATOM
      1 N01          0.0000     0.0000     0.0000 nb         1 XFJ      -0.756000
      2 C02          1.3240     0.0000     0.0000 ca         1 XFJ       0.702700
      3 N02          2.0130    -0.0000    -1.2070 nv         1 XFJ      -1.035500
      4 C03          2.0310     0.0000     1.1980 ca         1 XFJ      -0.309300
      5 C04          1.3330    -0.0010     2.3920 ca         1 XFJ      -0.015300
      6 C05         -0.0550    -0.0010     2.3480 ca         1 XFJ      -0.295800
      7 C06         -0.6930    -0.0010     1.1230 ca         1 XFJ       0.464100
      8 C07          2.0620    -0.0010     3.7110 c3         1 XFJ      -0.050800
      9 C08         -2.1980    -0.0010     1.0690 c3         1 XFJ      -0.121700
     10 C09         -2.6780     1.1810     0.2240 c3         1 XFJ      -0.024100
     11 N11         -6.2260     1.7850     1.2650 nb         1 XFJ      -0.686000
     12 C12         -4.9080     1.7950     1.2710 ca         1 XFJ       0.415700
     13 C13         -4.1910     1.1430     0.2870 ca         1 XFJ      -0.208100
     14 C14         -4.8760     0.4730    -0.7160 ca         1 XFJ      -0.092000
     15 C15         -6.2620     0.4850    -0.6900 ca         1 XFJ      -0.208100
     16 C16         -6.9110     1.1600     0.3270 ca         1 XFJ       0.415700
     17 C17         -7.0520    -0.2280    -1.7580 c3         1 XFJ      -0.024100
     18 C18         -7.3150    -1.6700    -1.3200 c3         1 XFJ      -0.121700
     19 N21         -9.2210    -2.0190    -2.8460 nb         1 XFJ      -0.756000
     20 C22         -9.9020    -2.6770    -3.7710 ca         1 XFJ       0.702700
     21 N22        -11.1150    -2.1720    -4.2250 nv         1 XFJ      -1.035500
     22 C23         -9.4420    -3.8990    -4.2540 ca         1 XFJ      -0.309300
     23 C24         -8.2610    -4.4180    -3.7540 ca         1 XFJ      -0.015300
     24 C25         -7.5790    -3.6960    -2.7830 ca         1 XFJ      -0.295800
     25 C26         -8.0930    -2.4890    -2.3510 ca         1 XFJ       0.464100
     26 HN02         2.7140    -0.6930    -1.3830 hn         1 XFJ       0.437550
     27 HN0A         1.8270     0.7080    -1.8890 hn         1 XFJ       0.437550
     28 H03          3.1150     0.0000     1.1960 ha         1 XFJ       0.136000
     29 H05         -0.6320    -0.0020     3.2650 ha         1 XFJ       0.137500
     30 H07          1.5790     0.6910     4.3900 hc         1 XFJ       0.047200
     31 H07A         2.0400    -0.9970     4.1350 hc         1 XFJ       0.047200
     32 H07B         3.0900     0.3030     3.5550 hc         1 XFJ       0.047200
     33 H08         -2.5960     0.0880     2.0730 hc         1 XFJ       0.056700
     34 H08A        -2.5440    -0.9260     0.6240 hc         1 XFJ       0.056700
     35 H09         -2.3320     2.1070     0.6680 hc         1 XFJ       0.061950
     36 H09A        -2.2810     1.0920    -0.7800 hc         1 XFJ       0.061950
     37 H12         -4.3810     2.3200     2.0580 h4         1 XFJ       0.023600
     38 H14         -4.3420    -0.0110    -1.5240 ha         1 XFJ       0.142000
     39 H16         -7.9940     1.1740     0.3550 h4         1 XFJ       0.023600
     40 H17         -6.4890    -0.2280    -2.6830 hc         1 XFJ       0.061950
     41 H17A        -7.9960     0.2810    -1.9090 hc         1 XFJ       0.061950
     42 H18         -7.8780    -1.6700    -0.3950 hc         1 XFJ       0.056700
     43 H18A        -6.3710    -2.1800    -1.1690 hc         1 XFJ       0.056700
     44 HN22       -11.6130    -2.6460    -4.9530 hn         1 XFJ       0.437550
     45 HN2A       -11.4810    -1.3250    -3.8370 hn         1 XFJ       0.437550
     46 H23        -10.0000    -4.4350    -5.0110 ha         1 XFJ       0.136000
     47 H25         -6.6520    -4.0740    -2.3710 ha         1 XFJ       0.137500
     48 H27         -8.5270    -6.2930    -4.7260 hc         1 XFJ       0.047200
     49 H27A        -6.9330    -5.5620    -4.9620 hc         1 XFJ       0.047200
     50 H27B        -7.3430    -6.3080    -3.4110 hc         1 XFJ       0.047200
     51 C27         -7.7290    -5.7380    -4.2480 c3         1 XFJ      -0.050800
@<TRIPOS>BOND
     1     1     7 ar
     2     1     2 ar
     3     3     2 1
     4     2     4 ar
     5     3    26 1
     6     3    27 1
     7     4     5 ar
     8     4    28 1
     9     6     5 ar
    10     5     8 1
    11     7     6 ar
    12     6    29 1
    13     9     7 1
    14     8    30 1
    15     8    31 1
    16     8    32 1
    17     9    10 1
    18     9    33 1
    19     9    34 1
    20    13    10 1
    21    10    35 1
    22    10    36 1
    23    16    11 ar
    24    11    12 ar
    25    12    13 ar
    26    12    37 1
    27    14    13 ar
    28    15    14 ar
    29    14    38 1
    30    17    15 1
    31    16    15 ar
    32    16    39 1
    33    17    18 1
    34    17    40 1
    35    17    41 1
    36    25    18 1
    37    18    42 1
    38    18    43 1
    39    20    19 ar
    40    25    19 ar
    41    22    20 ar
    42    20    21 1
    43    21    44 1
    44    21    45 1
    45    23    22 ar
    46    22    46 1
    47    51    23 1
    48    23    24 ar
    49    24    25 ar
    50    24    47 1
    51    51    48 1
    52    51    49 1
    53    51    50 1
@<TRIPOS>SUBSTRUCTURE
     1 XFJ         1 TEMP              0 ****  ****    0 ROOT
