@<TRIPOS>MOLECULE
XFK
   51    53     1     0     0
SMALL
bcc


@<TRIPOS>ATOM
      1 N01          0.0000     0.0000     0.0000 nb         1 XFK      -0.593000
      2 C02          1.3250     0.0000     0.0000 ca         1 XFK       0.502200
      3 N02          2.0130     0.0020    -1.2070 nv         1 XFK      -0.659500
      4 C03          2.0330     0.0000     1.1970 ca         1 XFK      -0.230300
      5 C04          1.3340    -0.0010     2.3920 ca         1 XFK      -0.051300
      6 C05         -0.0540    -0.0020     2.3480 ca         1 XFK      -0.223300
      7 C06         -0.6920    -0.0020     1.1230 ca         1 XFK       0.381600
      8 C07          2.0630    -0.0020     3.7100 c3         1 XFK       0.062200
      9 C08         -2.1970    -0.0020     1.0690 c3         1 XFK      -0.073700
     10 C09         -2.6790     1.1800     0.2250 c3         1 XFK       0.040900
     11 N11         -6.2270     1.7810     1.2670 nb         1 XFK      -0.578000
     12 C12         -4.9080     1.7910     1.2730 ca         1 XFK       0.401200
     13 C13         -4.1910     1.1400     0.2880 ca         1 XFK      -0.205600
     14 C14         -4.8760     0.4690    -0.7150 ca         1 XFK      -0.066000
     15 C15         -6.2630     0.4800    -0.6880 ca         1 XFK      -0.208600
     16 C16         -6.9110     1.1550     0.3300 ca         1 XFK       0.399200
     17 C17         -7.0510    -0.2320    -1.7550 c3         1 XFK       0.045900
     18 C18         -7.3130    -1.6750    -1.3180 c3         1 XFK       0.028900
     19 C21         -9.4660    -2.5130    -2.3670 ca         1 XFK      -0.311300
     20 C22        -10.1250    -3.2390    -3.3530 ca         1 XFK       0.515200
     21 N22        -11.5140    -3.2960    -3.3550 nv         1 XFK      -0.533500
     22 N23         -9.4400    -3.9160    -4.2630 nb         1 XFK      -0.654000
     23 C24         -8.1210    -3.9290    -4.2680 ca         1 XFK       0.430600
     24 C25         -7.4030    -3.2300    -3.3190 ca         1 XFK      -0.291300
     25 C26         -8.0820    -2.5020    -2.3520 ca         1 XFK      -0.005300
     26 HN02         2.2850     0.8690    -1.6270 hn         1 XFK       0.275800
     27 HN0A         2.2200    -0.8630    -1.6670 hn         1 XFK       0.275800
     28 H03          3.1160     0.0000     1.1950 ha         1 XFK       0.121000
     29 H05         -0.6300    -0.0030     3.2650 ha         1 XFK       0.119000
     30 H07          3.1090     0.2260     3.5450 hc         1 XFK       0.010700
     31 H07A         1.6290     0.7460     4.3630 hc         1 XFK       0.010700
     32 H07B         1.9750    -0.9780     4.1710 hc         1 XFK       0.010700
     33 H08         -2.5420    -0.9280     0.6240 hc         1 XFK       0.025200
     34 H08A        -2.5950     0.0860     2.0730 hc         1 XFK       0.025200
     35 H09         -2.2810     1.0920    -0.7790 hc         1 XFK       0.031200
     36 H09A        -2.3340     2.1060     0.6700 hc         1 XFK       0.031200
     37 H12         -4.3800     2.3170     2.0600 h4         1 XFK      -0.018900
     38 H14         -4.3420    -0.0140    -1.5240 ha         1 XFK       0.118000
     39 H16         -7.9940     1.1690     0.3580 h4         1 XFK      -0.018900
     40 H17         -6.4890    -0.2320    -2.6810 hc         1 XFK       0.021700
     41 H17A        -7.9960     0.2760    -1.9070 hc         1 XFK       0.021700
     42 H18         -6.3690    -2.1840    -1.1670 hc         1 XFK       0.020700
     43 H18A        -7.8750    -1.6750    -0.3920 hc         1 XFK       0.020700
     44 H21        -10.0260    -1.8560    -1.7120 ha         1 XFK       0.119000
     45 HN22       -11.9920    -3.8110    -4.0670 hn         1 XFK       0.269800
     46 HN2A       -12.0350    -2.8200    -2.6460 hn         1 XFK       0.269800
     47 H25         -6.3200    -3.2460    -3.3320 ha         1 XFK       0.119000
     48 H27         -8.1060    -5.1790    -5.9920 hc         1 XFK       0.013033
     49 H27A        -6.7470    -4.0510    -5.8900 hc         1 XFK       0.013033
     50 H27B        -6.7880    -5.4830    -4.8520 hc         1 XFK       0.013033
     51 C27         -7.3890    -4.7160    -5.3250 c3         1 XFK      -0.043400
@<TRIPOS>BOND
     1     1     2 ar  
     2     1     7 ar  
     3     2     3 1   
     4     2     4 ar  
     5     3    26 1   
     6     3    27 1   
     7     4     5 ar  
     8     4    28 1   
     9     5     6 ar  
    10     5     8 1   
    11     6     7 ar  
    12     6    29 1   
    13     7     9 1   
    14     8    30 1   
    15     8    31 1   
    16     8    32 1   
    17     9    10 1   
    18     9    33 1   
    19     9    34 1   
    20    10    13 1   
    21    10    35 1   
    22    10    36 1   
    23    11    12 ar  
    24    11    16 ar  
    25    12    13 ar  
    26    12    37 1   
    27    13    14 ar  
    28    14    15 ar  
    29    14    38 1   
    30    15    16 ar  
    31    15    17 1   
    32    16    39 1   
    33    17    18 1   
    34    17    40 1   
    35    17    41 1   
    36    18    25 1   
    37    18    42 1   
    38    18    43 1   
    39    19    20 ar  
    40    19    25 ar  
    41    19    44 1   
    42    20    21 1   
    43    20    22 ar  
    44    21    45 1   
    45    21    46 1   
    46    22    23 ar  
    47    23    24 ar  
    48    23    51 1   
    49    24    25 ar  
    50    24    47 1   
    51    48    51 1   
    52    49    51 1   
    53    50    51 1   
@<TRIPOS>SUBSTRUCTURE
     1 XFK         1 TEMP              0 ****  ****    0 ROOT
