@<TRIPOS>MOLECULE
molecule
   51    53     1     0     0
SMALL
bcc


@<TRIPOS>ATOM
      1 N01          0.0000     0.0000     0.0000 nb         1 XFK      -0.722000
      2 C02          1.3250     0.0000     0.0000 ca         1 XFK       0.684200
      3 N02          2.0130     0.0020    -1.2070 nv         1 XFK      -1.084500
      4 C03          2.0330     0.0000     1.1970 ca         1 XFK      -0.262300
      5 C04          1.3340    -0.0010     2.3920 ca         1 XFK      -0.042300
      6 C05         -0.0540    -0.0020     2.3480 ca         1 XFK      -0.259300
      7 C06         -0.6920    -0.0020     1.1230 ca         1 XFK       0.437600
      8 C07          2.0630    -0.0020     3.7100 c3         1 XFK      -0.050800
      9 C08         -2.1970    -0.0020     1.0690 c3         1 XFK      -0.124700
     10 C09         -2.6790     1.1800     0.2250 c3         1 XFK      -0.026100
     11 N11         -6.2270     1.7810     1.2670 nb         1 XFK      -0.685000
     12 C12         -4.9080     1.7910     1.2730 ca         1 XFK       0.416200
     13 C13         -4.1910     1.1400     0.2880 ca         1 XFK      -0.206600
     14 C14         -4.8760     0.4690    -0.7150 ca         1 XFK      -0.090000
     15 C15         -6.2630     0.4800    -0.6880 ca         1 XFK      -0.207600
     16 C16         -6.9110     1.1550     0.3300 ca         1 XFK       0.415200
     17 C17         -7.0510    -0.2320    -1.7550 c3         1 XFK      -0.024100
     18 C18         -7.3130    -1.6750    -1.3180 c3         1 XFK      -0.034100
     19 C21         -9.4660    -2.5130    -2.3670 ca         1 XFK      -0.327300
     20 C22        -10.1250    -3.2390    -3.3530 ca         1 XFK       0.711200
     21 N22        -11.5140    -3.2960    -3.3550 nv         1 XFK      -1.013500
     22 N23         -9.4400    -3.9160    -4.2630 nb         1 XFK      -0.769000
     23 C24         -8.1210    -3.9290    -4.2680 ca         1 XFK       0.479600
     24 C25         -7.4030    -3.2300    -3.3190 ca         1 XFK      -0.312300
     25 C26         -8.0820    -2.5020    -2.3520 ca         1 XFK      -0.006300
     26 HN02         2.2850     0.8690    -1.6270 hn         1 XFK       0.435300
     27 HN0A         2.2200    -0.8630    -1.6670 hn         1 XFK       0.435300
     28 H03          3.1160     0.0000     1.1950 ha         1 XFK       0.143000
     29 H05         -0.6300    -0.0030     3.2650 ha         1 XFK       0.138000
     30 H07          3.1090     0.2260     3.5450 hc         1 XFK       0.047700
     31 H07A         1.6290     0.7460     4.3630 hc         1 XFK       0.047700
     32 H07B         1.9750    -0.9780     4.1710 hc         1 XFK       0.047700
     33 H08         -2.5420    -0.9280     0.6240 hc         1 XFK       0.057700
     34 H08A        -2.5950     0.0860     2.0730 hc         1 XFK       0.057700
     35 H09         -2.2810     1.0920    -0.7790 hc         1 XFK       0.064200
     36 H09A        -2.3340     2.1060     0.6700 hc         1 XFK       0.064200
     37 H12         -4.3800     2.3170     2.0600 h4         1 XFK       0.022100
     38 H14         -4.3420    -0.0140    -1.5240 ha         1 XFK       0.143000
     39 H16         -7.9940     1.1690     0.3580 h4         1 XFK       0.022100
     40 H17         -6.4890    -0.2320    -2.6810 hc         1 XFK       0.054700
     41 H17A        -7.9960     0.2760    -1.9070 hc         1 XFK       0.054700
     42 H18         -6.3690    -2.1840    -1.1670 hc         1 XFK       0.053200
     43 H18A        -7.8750    -1.6750    -0.3920 hc         1 XFK       0.053200
     44 H21        -10.0260    -1.8560    -1.7120 ha         1 XFK       0.133000
     45 HN22       -11.9920    -3.8110    -4.0670 hn         1 XFK       0.438800
     46 HN2A       -12.0350    -2.8200    -2.6460 hn         1 XFK       0.438800
     47 H25         -6.3200    -3.2460    -3.3320 ha         1 XFK       0.136000
     48 H27         -8.1060    -5.1790    -5.9920 hc         1 XFK       0.051700
     49 H27A        -6.7470    -4.0510    -5.8900 hc         1 XFK       0.051700
     50 H27B        -6.7880    -5.4830    -4.8520 hc         1 XFK       0.051700
     51 C27         -7.3890    -4.7160    -5.3250 c3         1 XFK      -0.142400
@<TRIPOS>BOND
     1     1     7 ar
     2     1     2 ar
     3     3     2 1
     4     2     4 ar
     5     3    26 1
     6     3    27 1
     7     4     5 ar
     8     4    28 1
     9     6     5 ar
    10     5     8 1
    11     7     6 ar
    12     6    29 1
    13     9     7 1
    14     8    30 1
    15     8    31 1
    16     8    32 1
    17     9    10 1
    18     9    33 1
    19     9    34 1
    20    13    10 1
    21    10    35 1
    22    10    36 1
    23    16    11 ar
    24    11    12 ar
    25    12    13 ar
    26    12    37 1
    27    14    13 ar
    28    15    14 ar
    29    14    38 1
    30    17    15 1
    31    16    15 ar
    32    16    39 1
    33    17    18 1
    34    17    40 1
    35    17    41 1
    36    25    18 1
    37    18    42 1
    38    18    43 1
    39    20    19 ar
    40    25    19 ar
    41    19    44 1
    42    22    20 ar
    43    20    21 1
    44    21    45 1
    45    21    46 1
    46    23    22 ar
    47    51    23 1
    48    23    24 ar
    49    24    25 ar
    50    24    47 1
    51    51    48 1
    52    51    49 1
    53    51    50 1
@<TRIPOS>SUBSTRUCTURE
     1 XFK         1 TEMP              0 ****  ****    0 ROOT
