@<TRIPOS>MOLECULE
molecule
   51    53     1     0     0
SMALL
bcc


@<TRIPOS>ATOM
      1 N1           0.0000     0.0000     0.0000 nb         1 XFL      -0.693000
      2 C2           1.3190     0.0000     0.0000 ca         1 XFL       0.431600
      3 C3           2.0260     0.0000     1.1880 ca         1 XFL      -0.257300
      4 C4           1.3300    -0.0000     2.3870 ca         1 XFL      -0.090000
      5 C5          -0.0550     0.0000     2.3480 ca         1 XFL      -0.257300
      6 C6          -0.6940     0.0000     1.1220 ca         1 XFL       0.431600
      7 N11          2.3220    -0.1060    -4.2320 nb         1 XFL      -0.743500
      8 C12          2.9620    -0.0620    -5.3900 ca         1 XFL       0.697200
      9 N12          2.9160     1.0940    -6.1590 nv         1 XFL      -1.049500
     10 C13          3.6810    -1.1640    -5.8440 ca         1 XFL      -0.298300
     11 C14          3.7190    -2.3070    -5.0680 ca         1 XFL      -0.024300
     12 C15          3.0340    -2.3130    -3.8600 ca         1 XFL      -0.286300
     13 C16          2.3410    -1.1840    -3.4720 ca         1 XFL       0.459600
     14 C18          1.5960    -1.1830    -2.1610 c3         1 XFL      -0.119700
     15 C19          2.0640    -0.0010    -1.3100 c3         1 XFL      -0.119200
     16 N21         -4.8210     0.1040    -0.2520 nb         1 XFL      -0.743500
     17 C22         -6.1430     0.0600    -0.3160 ca         1 XFL       0.697200
     18 N22         -6.7720    -1.0960    -0.7610 nv         1 XFL      -1.049500
     19 C23         -6.9070     1.1620     0.0560 ca         1 XFL      -0.298300
     20 C24         -6.2680     2.3060     0.4980 ca         1 XFL      -0.024300
     21 C25         -4.8800     2.3110     0.5500 ca         1 XFL      -0.286300
     22 C26         -4.1840     1.1830     0.1650 ca         1 XFL       0.459600
     23 C28         -2.6780     1.1820     0.2200 c3         1 XFL      -0.119700
     24 C29         -2.2000     0.0010     1.0660 c3         1 XFL      -0.119200
     25 H3           3.1090    -0.0000     1.1820 ha         1 XFL       0.137000
     26 H4           1.8580    -0.0000     3.3340 ha         1 XFL       0.135000
     27 H5          -0.6300     0.0000     3.2660 ha         1 XFL       0.137000
     28 HN12         2.1790     1.2240    -6.8240 hn         1 XFL       0.436300
     29 HN1A         3.6060     1.8080    -6.0320 hn         1 XFL       0.436300
     30 H13          4.2040    -1.1250    -6.7920 ha         1 XFL       0.136500
     31 H15          3.0440    -3.1930    -3.2290 ha         1 XFL       0.137000
     32 H17          3.8450    -4.1460    -6.1350 hc         1 XFL       0.046367
     33 H17A         5.3460    -3.2100    -6.1040 hc         1 XFL       0.046367
     34 H17B         4.8180    -4.0850    -4.6600 hc         1 XFL       0.046367
     35 H18          0.5330    -1.0930    -2.3500 hc         1 XFL       0.065700
     36 H18A         1.7920    -2.1080    -1.6330 hc         1 XFL       0.065700
     37 H19          3.1270    -0.0910    -1.1200 hc         1 XFL       0.064700
     38 H19A         1.8680     0.9240    -1.8370 hc         1 XFL       0.064700
     39 HN22        -6.2260    -1.8850    -1.0450 hn         1 XFL       0.436300
     40 HN2A        -7.7710    -1.1370    -0.8050 hn         1 XFL       0.436300
     41 H23         -7.9880     1.1230     0.0030 ha         1 XFL       0.136500
     42 H25         -4.3480     3.1920     0.8900 ha         1 XFL       0.137000
     43 H27         -6.5090     4.0700     1.6650 hc         1 XFL       0.046367
     44 H27A        -8.0140     3.2080     1.3160 hc         1 XFL       0.046367
     45 H27B        -7.2220     4.1550     0.0480 hc         1 XFL       0.046367
     46 H28         -2.2800     1.0930    -0.7830 hc         1 XFL       0.065700
     47 H28A        -2.3320     2.1080     0.6650 hc         1 XFL       0.065700
     48 H29         -2.5450    -0.9240     0.6220 hc         1 XFL       0.064700
     49 H29A        -2.5980     0.0910     2.0690 hc         1 XFL       0.064700
     50 C17          4.4860    -3.5220    -5.5240 c3         1 XFL      -0.049800
     51 C27         -7.0590     3.5200     0.9110 c3         1 XFL      -0.049800
@<TRIPOS>BOND
     1     1     6 ar
     2     1     2 ar
     3    15     2 1
     4     2     3 ar
     5     3     4 ar
     6     3    25 1
     7     5     4 ar
     8     4    26 1
     9     6     5 ar
    10     5    27 1
    11    24     6 1
    12     7     8 ar
    13     7    13 ar
    14     9     8 1
    15     8    10 ar
    16     9    28 1
    17     9    29 1
    18    10    11 ar
    19    10    30 1
    20    12    11 ar
    21    11    50 1
    22    13    12 ar
    23    12    31 1
    24    14    13 1
    25    50    32 1
    26    50    33 1
    27    50    34 1
    28    15    14 1
    29    14    35 1
    30    14    36 1
    31    15    37 1
    32    15    38 1
    33    17    16 ar
    34    16    22 ar
    35    18    17 1
    36    17    19 ar
    37    18    39 1
    38    18    40 1
    39    19    20 ar
    40    19    41 1
    41    20    51 1
    42    20    21 ar
    43    22    21 ar
    44    21    42 1
    45    22    23 1
    46    51    43 1
    47    51    44 1
    48    51    45 1
    49    23    24 1
    50    23    46 1
    51    23    47 1
    52    24    48 1
    53    24    49 1
@<TRIPOS>SUBSTRUCTURE
     1 XFL         1 TEMP              0 ****  ****    0 ROOT
