@<TRIPOS>MOLECULE
XFM
   51    53     1     0     0
SMALL
bcc


@<TRIPOS>ATOM
      1 N1           0.0000     0.0000     0.0000 nb         1 XFM      -0.654000
      2 C2           1.3200     0.0000     0.0000 ca         1 XFM       0.429600
      3 C3           2.0290     0.0000     1.1840 ca         1 XFM      -0.290300
      4 C4           1.3380    -0.0010     2.3900 ca         1 XFM      -0.004300
      5 C5          -0.0440    -0.0010     2.3590 ca         1 XFM      -0.314300
      6 C6          -0.6930    -0.0010     1.1280 ca         1 XFM       0.516200
      7 C7           2.0630    -0.0000    -1.3110 c3         1 XFM      -0.069700
      8 C8           1.5950    -1.1820    -2.1630 c3         1 XFM      -0.067700
      9 C9           2.3380    -1.1820    -3.4740 ca         1 XFM       0.379600
     10 N10          2.3180    -0.1050    -4.2350 nb         1 XFM      -0.569000
     11 C11          2.9530    -0.0590    -5.3890 ca         1 XFM       0.373600
     12 C12          3.6690    -1.1500    -5.8450 ca         1 XFM      -0.223300
     13 C13          3.7140    -2.3000    -5.0730 ca         1 XFM      -0.064000
     14 C14          3.0370    -2.3090    -3.8630 ca         1 XFM      -0.222300
     15 C15          2.8990     1.1970    -6.2210 c3         1 XFM      -0.064700
     16 C16          1.4380     1.5750    -6.4760 c3         1 XFM       0.028900
     17 C17          1.3830     2.8310    -7.3080 ca         1 XFM      -0.052300
     18 C18          1.3600     4.0820    -6.7040 ca         1 XFM      -0.221300
     19 C19          1.3090     5.2120    -7.4940 ca         1 XFM       0.382600
     20 N20          1.2830     5.1180    -8.8090 nb         1 XFM      -0.590000
     21 C21          1.3040     3.9440    -9.4220 ca         1 XFM       0.499200
     22 C22          1.3600     2.7640    -8.6890 ca         1 XFM      -0.231300
     23 N23          1.2740     3.8910   -10.8110 nv         1 XFM      -0.660500
     24 C24          1.2840     6.5720    -6.8450 c3         1 XFM      -0.041400
     25 C25          2.0790    -0.0010     3.7010 c3         1 XFM       0.060200
     26 N26         -2.0830    -0.0010     1.0820 nv         1 XFM      -0.536500
     27 H3           3.1120     0.0000     1.1740 ha         1 XFM       0.120000
     28 H5          -0.6140    -0.0020     3.2800 ha         1 XFM       0.118000
     29 H7           3.1260    -0.0890    -1.1240 hc         1 XFM       0.030200
     30 H7A          1.8660     0.9250    -1.8380 hc         1 XFM       0.030200
     31 H8           0.5320    -1.0940    -2.3500 hc         1 XFM       0.030700
     32 H8A          1.7930    -2.1080    -1.6360 hc         1 XFM       0.030700
     33 H12          4.1880    -1.1070    -6.7950 ha         1 XFM       0.116000
     34 H13          4.2690    -3.1700    -5.4050 ha         1 XFM       0.107000
     35 H14          3.0500    -3.1910    -3.2340 ha         1 XFM       0.117000
     36 H15          3.3940     2.0020    -5.6920 hc         1 XFM       0.024700
     37 H15A         3.3980     1.0250    -7.1670 hc         1 XFM       0.024700
     38 H16          0.9390     1.7470    -5.5300 hc         1 XFM       0.030700
     39 H16A         0.9430     0.7700    -7.0050 hc         1 XFM       0.030700
     40 H18          1.3810     4.1690    -5.6250 ha         1 XFM       0.121000
     41 H22          1.3770     1.8050    -9.1920 ha         1 XFM       0.119000
     42 HN23         0.3970     3.8490   -11.2910 hn         1 XFM       0.274800
     43 HN2A         2.1290     3.9200   -11.3310 hn         1 XFM       0.274800
     44 H24          1.2730     7.3380    -7.6110 hc         1 XFM       0.012700
     45 H24A         2.1650     6.6930    -6.2260 hc         1 XFM       0.012700
     46 H24B         0.3960     6.6630    -6.2310 hc         1 XFM       0.012700
     47 H25          1.6560    -0.7540     4.3550 hc         1 XFM       0.009700
     48 H25A         1.9900     0.9730     4.1670 hc         1 XFM       0.009700
     49 H25B         3.1250    -0.2230     3.5250 hc         1 XFM       0.009700
     50 HN26        -2.6120    -0.0040     1.9310 hn         1 XFM       0.269800
     51 HN2B        -2.5540     0.0080     0.1990 hn         1 XFM       0.269800
@<TRIPOS>BOND
     1     1     2 ar  
     2     1     6 ar  
     3     2     3 ar  
     4     2     7 1   
     5     3     4 ar  
     6     3    27 1   
     7     4     5 ar  
     8     4    25 1   
     9     5     6 ar  
    10     5    28 1   
    11     6    26 1   
    12     7     8 1   
    13     7    29 1   
    14     7    30 1   
    15     8     9 1   
    16     8    31 1   
    17     8    32 1   
    18     9    10 ar  
    19     9    14 ar  
    20    10    11 ar  
    21    11    12 ar  
    22    11    15 1   
    23    12    13 ar  
    24    12    33 1   
    25    13    14 ar  
    26    13    34 1   
    27    14    35 1   
    28    15    16 1   
    29    15    36 1   
    30    15    37 1   
    31    16    17 1   
    32    16    38 1   
    33    16    39 1   
    34    17    18 ar  
    35    17    22 ar  
    36    18    19 ar  
    37    18    40 1   
    38    19    20 ar  
    39    19    24 1   
    40    20    21 ar  
    41    21    22 ar  
    42    21    23 1   
    43    22    41 1   
    44    23    42 1   
    45    23    43 1   
    46    24    44 1   
    47    24    45 1   
    48    24    46 1   
    49    25    47 1   
    50    25    48 1   
    51    25    49 1   
    52    26    50 1   
    53    26    51 1   
@<TRIPOS>SUBSTRUCTURE
     1 XFM         1 TEMP              0 ****  ****    0 ROOT
