@<TRIPOS>MOLECULE
molecule
   54    56     1     0     0
SMALL
bcc


@<TRIPOS>ATOM
      1 C01          0.0000     0.0000     0.0000 ca         1 XFN      -0.211000
      2 C02          1.3890     0.0000     0.0000 ca         1 XFN       0.205600
      3 N02          2.0890     0.0010    -1.2090 nv         1 XFN      -0.925200
      4 C03          2.0800     0.0000     1.2060 ca         1 XFN      -0.211000
      5 C04          1.3840    -0.0000     2.3990 ca         1 XFN      -0.038300
      6 C05          0.0020    -0.0000     2.3940 ca         1 XFN      -0.176000
      7 C06         -0.6890     0.0050     1.1970 ca         1 XFN      -0.038300
      8 C07          2.1330    -0.0000     3.7060 c3         1 XFN      -0.030100
      9 C08         -2.1970     0.0060     1.1970 c3         1 XFN      -0.030100
     10 C09         -2.7080    -1.4360     1.2030 c3         1 XFN      -0.120700
     11 C11         -6.1880    -0.7450     2.1800 ca         1 XFN       0.711200
     12 N12         -4.8650    -0.7730     2.1410 nb         1 XFN      -0.771000
     13 C13         -4.2140    -1.4360     1.2030 ca         1 XFN       0.479600
     14 C14         -4.8960    -2.1280     0.2230 ca         1 XFN      -0.312300
     15 C15         -6.2850    -2.1240     0.2270 ca         1 XFN      -0.004300
     16 C16         -6.9390    -1.4210     1.2230 ca         1 XFN      -0.331300
     17 C18         -7.0610    -2.8680    -0.8280 c3         1 XFN      -0.049800
     18 C34          2.3870     1.4420     4.1490 c3         1 XFN      -0.120700
     19 C35          3.1350     1.4420     5.4570 ca         1 XFN       0.479600
     20 C36          4.3280     2.1300     5.5600 ca         1 XFN      -0.312300
     21 C37          5.0130     2.1260     6.7670 ca         1 XFN      -0.004300
     22 C38          4.4730     1.4280     7.8310 ca         1 XFN      -0.331300
     23 C39          3.2670     0.7560     7.6570 ca         1 XFN       0.711200
     24 N40          2.6400     0.7880     6.4900 nb         1 XFN      -0.771000
     25 N41          2.7130     0.0490     8.7170 nv         1 XFN      -1.015000
     26 C42          6.3170     2.8670     6.9150 c3         1 XFN      -0.049800
     27 H01         -0.5420     0.0040    -0.9380 ha         1 XFN       0.127000
     28 HN02         3.0840    -0.1090    -1.2110 hn         1 XFN       0.427800
     29 HN0A         1.5970     0.1160    -2.0720 hn         1 XFN       0.427800
     30 H03          3.1630     0.0000     1.2100 ha         1 XFN       0.127000
     31 H05         -0.5420     0.0020     3.3310 ha         1 XFN       0.135000
     32 H07          1.5450    -0.5110     4.4590 hc         1 XFN       0.058700
     33 H07A         3.0800    -0.5110     3.5800 hc         1 XFN       0.058700
     34 H08         -2.5580     0.5130     0.3110 hc         1 XFN       0.058700
     35 H08A        -2.5580     0.5200     2.0800 hc         1 XFN       0.058700
     36 H09         -2.3470    -1.9440     2.0900 hc         1 XFN       0.059200
     37 H09A        -2.3470    -1.9510     0.3210 hc         1 XFN       0.059200
     38 H14         -4.3530    -2.6690    -0.5430 ha         1 XFN       0.136000
     39 H16         -8.0220    -1.3960     1.2570 ha         1 XFN       0.132000
     40 HN17        -6.2970     0.4440     3.8830 hn         1 XFN       0.438300
     41 HN1A        -7.8330    -0.0110     3.2190 hn         1 XFN       0.438300
     42 H18         -7.7680    -3.5360    -0.3520 hc         1 XFN       0.046367
     43 H18A        -7.5950    -2.1590    -1.4500 hc         1 XFN       0.046367
     44 H18B        -6.3770    -3.4430    -1.4410 hc         1 XFN       0.046367
     45 H34          1.4400     1.9530     4.2750 hc         1 XFN       0.059200
     46 H34A         2.9750     1.9530     3.3960 hc         1 XFN       0.059200
     47 H36          4.7240     2.6680     4.7070 ha         1 XFN       0.136000
     48 H38          4.9830     1.4020     8.7860 ha         1 XFN       0.132000
     49 HN41         1.8410    -0.4280     8.6000 hn         1 XFN       0.438300
     50 HN4A         3.1840     0.0210     9.6000 hn         1 XFN       0.438300
     51 H42          6.8380     2.5100     7.7950 hc         1 XFN       0.046367
     52 H42A         6.1200     3.9270     7.0170 hc         1 XFN       0.046367
     53 H42B         6.9310     2.6970     6.0380 hc         1 XFN       0.046367
     54 N17         -6.8330    -0.0400     3.1890 nv         1 XFN      -1.015000
@<TRIPOS>BOND
     1     7     1 ar
     2     1     2 ar
     3     1    27 1
     4     2     4 ar
     5     2     3 1
     6     3    28 1
     7     3    29 1
     8     5     4 ar
     9     4    30 1
    10     6     5 ar
    11     5     8 1
    12     7     6 ar
    13     6    31 1
    14     9     7 1
    15    18     8 1
    16     8    32 1
    17     8    33 1
    18    10     9 1
    19     9    34 1
    20     9    35 1
    21    10    13 1
    22    10    36 1
    23    10    37 1
    24    12    11 ar
    25    54    11 1
    26    11    16 ar
    27    12    13 ar
    28    13    14 ar
    29    14    15 ar
    30    14    38 1
    31    16    15 ar
    32    15    17 1
    33    16    39 1
    34    54    40 1
    35    54    41 1
    36    17    42 1
    37    17    43 1
    38    17    44 1
    39    18    19 1
    40    18    45 1
    41    18    46 1
    42    24    19 ar
    43    19    20 ar
    44    20    21 ar
    45    20    47 1
    46    22    21 ar
    47    21    26 1
    48    23    22 ar
    49    22    48 1
    50    24    23 ar
    51    25    23 1
    52    25    49 1
    53    25    50 1
    54    26    51 1
    55    26    52 1
    56    26    53 1
@<TRIPOS>SUBSTRUCTURE
     1 XFN         1 TEMP              0 ****  ****    0 ROOT
