@<TRIPOS>MOLECULE
XG1
   34    36     1     0     0
SMALL
bcc


@<TRIPOS>ATOM
      1 NAR          0.0000     0.0000     0.0000 nv         1 XG1      -0.581500
      2 CAG          1.3810     0.0000     0.0000 ca         1 XG1       0.567200
      3 NAI          2.0290     0.0000     1.1380 nb         1 XG1      -0.639000
      4 CAA          3.3770    -0.0000     1.2480 ca         1 XG1       0.390600
      5 CAC          3.9730    -0.0010     2.5170 ca         1 XG1      -0.147300
      6 CAE          5.3420    -0.0010     2.6370 ca         1 XG1      -0.102000
      7 CAF          6.1520    -0.0030     1.5100 ca         1 XG1      -0.111000
      8 CAD          5.5920    -0.0020     0.2500 ca         1 XG1      -0.089000
      9 CAB          4.2080    -0.0010     0.1060 ca         1 XG1      -0.094300
     10 CAJ          3.5780    -0.0020    -1.2200 ca         1 XG1      -0.123000
     11 CAM          3.9740    -0.0020    -2.5300 cc         1 XG1      -0.330100
     12 CAH          2.1050    -0.0070    -1.2730 ca         1 XG1      -0.208300
     13 NAK          1.7930    -0.0130    -2.5460 nc         1 XG1      -0.364400
     14 NAL          2.8520    -0.0020    -3.2770 na         1 XG1       0.635800
     15 CAN          2.8410    -0.0050    -4.7420 c3         1 XG1      -0.041700
     16 CAO          2.0240    -1.1980    -5.2430 c3         1 XG1      -0.045400
     17 CAP          2.0120    -1.2000    -6.7720 c3         1 XG1      -0.023400
     18 CAQ          1.1950    -2.3930    -7.2740 c3         1 XG1       0.007900
     19 H1          -0.5000    -0.7000     0.5110 hn         1 XG1       0.273800
     20 H2          -0.5000     0.7140    -0.4920 hn         1 XG1       0.273800
     21 H3           3.3530     0.0010     3.4050 ha         1 XG1       0.114000
     22 H4           5.7940    -0.0020     3.6210 ha         1 XG1       0.100000
     23 H5           7.2300    -0.0040     1.6210 ha         1 XG1       0.100000
     24 H6           6.2290    -0.0030    -0.6260 ha         1 XG1       0.101000
     25 H7           4.9940     0.0060    -2.8960 h4         1 XG1       0.156000
     26 H8           2.3960     0.9150    -5.1010 h1         1 XG1       0.037200
     27 H9           3.8570    -0.0820    -5.1100 h1         1 XG1       0.037200
     28 H10          1.0080    -1.1210    -4.8740 hc         1 XG1       0.034200
     29 H11          2.4700    -2.1180    -4.8840 hc         1 XG1       0.034200
     30 H12          1.5660    -0.2810    -7.1310 hc         1 XG1       0.012700
     31 H13          3.0270    -1.2770    -7.1420 hc         1 XG1       0.012700
     32 H14          1.1850    -2.3950    -8.3570 hc         1 XG1       0.003367
     33 H15          1.6410    -3.3130    -6.9150 hc         1 XG1       0.003367
     34 H16          0.1790    -2.3170    -6.9040 hc         1 XG1       0.003367
@<TRIPOS>BOND
     1     1     2 1   
     2     1    19 1   
     3     1    20 1   
     4     2     3 ar  
     5     2    12 ar  
     6     3     4 ar  
     7     4     5 ar  
     8     4     9 ar  
     9     5     6 ar  
    10     5    21 1   
    11     6     7 ar  
    12     6    22 1   
    13     7     8 ar  
    14     7    23 1   
    15     8     9 ar  
    16     8    24 1   
    17     9    10 ar  
    18    10    11 2   
    19    10    12 ar  
    20    11    14 1   
    21    11    25 1   
    22    12    13 2   
    23    13    14 1   
    24    14    15 1   
    25    15    16 1   
    26    15    26 1   
    27    15    27 1   
    28    16    17 1   
    29    16    28 1   
    30    16    29 1   
    31    17    18 1   
    32    17    30 1   
    33    17    31 1   
    34    18    32 1   
    35    18    33 1   
    36    18    34 1   
@<TRIPOS>SUBSTRUCTURE
     1 XG1         1 TEMP              0 ****  ****    0 ROOT
