@<TRIPOS>MOLECULE
molecule
   45    47     1     0     0
SMALL
bcc


@<TRIPOS>ATOM
      1 N1           0.0000     0.0000     0.0000 ns         1 XG4      -0.480400
      2 C2           1.3630     0.0000     0.0000 cc         1 XG4       0.068800
      3 N2           2.0290     0.0010    -1.2000 nz         1 XG4      -0.602600
      4 N3           2.0580     0.0000     1.1160 nd         1 XG4      -0.746100
      5 C4           1.4520    -0.0010     2.3080 cd         1 XG4       0.148800
      6 C5           0.0530    -0.0020     2.3750 cc         1 XG4       0.059800
      7 C6          -0.6820    -0.0020     1.1670 c          1 XG4       0.682000
      8 O6          -1.9020     0.0040     1.1780 o          1 XG4      -0.728500
      9 N7          -0.2860    -0.0030     3.6880 nc         1 XG4      -0.636000
     10 C8           0.7940    -0.0030     4.4120 cd         1 XG4       0.370400
     11 N9           1.8930    -0.0010     3.6030 na         1 XG4      -0.248900
     12 PA           4.5280    -1.6810     9.5330 p5         1 XG4       1.252700
     13 PB           2.8100    -2.3000    11.6220 p5         1 XG4       1.415700
     14 PG           0.4980    -2.8300    13.3990 p5         1 XG4       1.281900
     15 C1'          3.2920    -0.0020     4.0410 c3         1 XG4       0.269800
     16 O1A          5.2720    -3.0980     9.7100 o          1 XG4      -0.790000
     17 O1B          3.5260    -1.1980    12.5520 o          1 XG4      -0.620000
     18 O1G         -1.0500    -2.3990    13.2930 o          1 XG4      -0.632167
     19 C2'          3.8290     1.4430     4.0780 c3         1 XG4      -0.158400
     20 O2A          5.1990    -0.6630    10.3720 o          1 XG4      -0.790000
     21 O2B          3.4800    -3.6080    11.8010 o          1 XG4      -0.620000
     22 O2G          0.5970    -4.4210    13.6210 o          1 XG4      -0.632167
     23 C3'          4.2760     1.6440     5.5480 c3         1 XG4       0.099100
     24 O3'          5.5110     2.3590     5.6110 oh         1 XG4      -0.602800
     25 N3A          2.9210    -1.8300    10.0100 n7         1 XG4      -0.930400
     26 O3B          1.2610    -2.4290    12.0390 os         1 XG4      -0.710800
     27 O3G          1.1280    -2.1320    14.5420 o          1 XG4      -0.632167
     28 C4'          4.4570     0.1830     6.0350 c3         1 XG4       0.136100
     29 O4'          3.3860    -0.5270     5.3760 os         1 XG4      -0.386600
     30 C5'          4.3050     0.0990     7.5540 c3         1 XG4       0.220400
     31 O5'          4.5900    -1.2310     7.9890 os         1 XG4      -0.571200
     32 HN1         -0.4980     0.0010    -0.8680 hn         1 XG4       0.266500
     33 HN2          1.7500    -0.7960    -1.7370 hn         1 XG4       0.344800
     34 HN2A         3.0150    -0.0360    -1.0350 hn         1 XG4       0.344800
     35 H8           0.8180    -0.0070     5.4950 h5         1 XG4       0.066100
     36 H1'          3.8950    -0.6000     3.3690 h2         1 XG4       0.060700
     37 H2'          3.0440     2.1440     3.8230 hc         1 XG4       0.055700
     38 H2'A         4.6740     1.5490     3.4090 hc         1 XG4       0.055700
     39 H3'          3.5020     2.1440     6.1180 h1         1 XG4       0.052700
     40 HO3'         5.3380     3.2690     5.7870 ho         1 XG4       0.388000
     41 HN3A         2.2290    -2.1310     9.3520 hn         1 XG4       0.401800
     42 H4'          5.4180    -0.2050     5.7200 h1         1 XG4       0.066700
     43 H5'          3.2900     0.3590     7.8300 h1         1 XG4       0.032700
     44 H5'A         4.9950     0.7890     8.0250 h1         1 XG4       0.032700
     45 H23          1.8000     0.8330    -1.7070 hn         1 XG4       0.344800
@<TRIPOS>BOND
     1     2     1 1
     2     1     7 1
     3     1    32 1
     4     4     2 2
     5     3     2 1
     6     3    33 1
     7     3    34 1
     8     4     5 1
     9    11     5 1
    10     5     6 2
    11     6     9 1
    12     6     7 1
    13     7     8 2
    14    10     9 2
    15    11    10 1
    16    10    35 1
    17    15    11 1
    18    31    12 1
    19    16    12 1
    20    12    20 1
    21    12    25 1
    22    17    13 1
    23    25    13 1
    24    13    21 1
    25    13    26 1
    26    18    14 1
    27    14    26 1
    28    14    22 1
    29    14    27 1
    30    29    15 1
    31    15    19 1
    32    15    36 1
    33    19    23 1
    34    19    37 1
    35    19    38 1
    36    28    23 1
    37    23    24 1
    38    23    39 1
    39    24    40 1
    40    25    41 1
    41    29    28 1
    42    28    30 1
    43    28    42 1
    44    30    31 1
    45    30    43 1
    46    30    44 1
    47    45     3 1
@<TRIPOS>SUBSTRUCTURE
     1 XG4         1 TEMP              0 ****  ****    0 ROOT
