@<TRIPOS>MOLECULE
XGH
   62    64     1     0     0
SMALL
bcc


@<TRIPOS>ATOM
      1 F6           0.0000     0.0000     0.0000 f          1 XGH      -0.194300
      2 C22          1.4000     0.0000     0.0000 c3         1 XGH       0.556900
      3 F4           1.8650     0.0000     1.3200 f          1 XGH      -0.194300
      4 F5           1.8660    -1.1430    -0.6590 f          1 XGH      -0.194300
      5 C20          1.9100     1.2490    -0.7210 c3         1 XGH       0.136100
      6 O4           3.3330     1.1860    -0.8310 oh         1 XGH      -0.531800
      7 C21          1.2940     1.3180    -2.1200 c3         1 XGH       0.556900
      8 F3           1.7600     2.4590    -2.7790 f          1 XGH      -0.194300
      9 F2           1.6550     0.1790    -2.8460 f          1 XGH      -0.194300
     10 F1          -0.1010     1.3790    -2.0110 f          1 XGH      -0.194300
     11 C1           1.5200     2.4760     0.0620 ca         1 XGH      -0.167300
     12 C2           2.4930     3.3420     0.5210 ca         1 XGH       0.021000
     13 C3           2.1380     4.4750     1.2430 ca         1 XGH       0.017900
     14 S            3.4110     5.5650     1.7960 ss         1 XGH      -0.298000
     15 C7           2.5580     6.5650     3.0500 c3         1 XGH       0.063400
     16 C8           3.4090     7.7850     3.4080 c3         1 XGH      -0.074400
     17 C9           4.6860     7.3300     4.0680 c          1 XGH       0.559100
     18 N1           5.5970     8.2380     4.4700 ns         1 XGH      -0.190900
     19 C10          6.8380     7.7960     5.1110 c3         1 XGH       0.056000
     20 C11          7.6900     9.0160     5.4690 c3         1 XGH       0.147800
     21 C13          7.9180     9.8630     4.2160 c3         1 XGH      -0.032600
     22 O1           7.0130     9.7970     6.4560 oh         1 XGH      -0.591800
     23 C12          9.0380     8.5510     6.0240 c3         1 XGH      -0.032600
     24 O            4.8940     6.1470     4.2340 o          1 XGH      -0.626100
     25 C6           1.2180     7.0230     2.4550 c3         1 XGH       0.191800
     26 N            0.3770     5.8480     2.2430 nh         1 XGH      -0.334900
     27 C4           0.7990     4.7370     1.5120 ca         1 XGH       0.115600
     28 C5          -0.1730     3.8580     1.0400 ca         1 XGH      -0.170000
     29 C            0.1870     2.7390     0.3160 ca         1 XGH      -0.058000
     30 S1          -1.1440     5.8350     2.8990 sy         1 XGH       1.050200
     31 O2          -1.4740     4.4700     3.1180 o          1 XGH      -0.575300
     32 O3          -1.1450     6.8100     3.9320 o          1 XGH      -0.575300
     33 C14         -2.2510     6.4210     1.6600 ca         1 XGH      -0.184500
     34 C19         -2.9520     5.5220     0.8770 ca         1 XGH       0.028500
     35 C18         -3.8210     5.9820    -0.0940 ca         1 XGH      -0.160000
     36 C17         -3.9890     7.3430    -0.2840 ca         1 XGH       0.162900
     37 F           -4.8380     7.7930    -1.2340 f          1 XGH      -0.120900
     38 C16         -3.2870     8.2430     0.5010 ca         1 XGH      -0.160000
     39 C15         -2.4230     7.7810     1.4750 ca         1 XGH       0.028500
     40 H1           3.5760     0.4430    -1.3580 ho         1 XGH       0.413000
     41 H2           3.5370     3.1380     0.3160 ha         1 XGH       0.140000
     42 H3           2.3790     5.9650     3.9350 h1         1 XGH       0.082700
     43 H4           3.6450     8.3370     2.5060 hc         1 XGH       0.038700
     44 H5           2.8580     8.4230     4.0880 hc         1 XGH       0.038700
     45 H6           5.4080     9.2150     4.3670 hn         1 XGH       0.182500
     46 H7           7.3880     7.1580     4.4310 h1         1 XGH       0.036700
     47 H8           6.6020     7.2440     6.0130 h1         1 XGH       0.036700
     48 H9           7.0790    10.5350     4.0770 hc         1 XGH       0.015200
     49 H10          8.8270    10.4400     4.3300 hc         1 XGH       0.015200
     50 H11          8.0070     9.2150     3.3520 hc         1 XGH       0.015200
     51 H12          7.6130    10.4200     6.8310 ho         1 XGH       0.400000
     52 H13          9.5460     7.9480     5.2810 hc         1 XGH       0.015200
     53 H14          8.8770     7.9620     6.9190 hc         1 XGH       0.015200
     54 H15          9.6460     9.4150     6.2650 hc         1 XGH       0.015200
     55 H16          1.4030     7.5010     1.5000 h1         1 XGH       0.048200
     56 H17          0.7280     7.6840     3.1590 h1         1 XGH       0.048200
     57 H18         -1.2200     4.0580     1.2350 ha         1 XGH       0.156000
     58 H19         -0.5770     2.0660    -0.0540 ha         1 XGH       0.133000
     59 H20         -2.8200     4.4570     1.0260 ha         1 XGH       0.128500
     60 H21         -4.3700     5.2780    -0.7080 ha         1 XGH       0.128000
     61 H22         -3.4210     9.3080     0.3550 ha         1 XGH       0.128000
     62 H23         -1.8740     8.4850     2.0890 ha         1 XGH       0.128500
@<TRIPOS>BOND
     1     1     2 1   
     2     2     3 1   
     3     2     4 1   
     4     2     5 1   
     5     5     6 1   
     6     5     7 1   
     7     5    11 1   
     8     6    40 1   
     9     7     8 1   
    10     7     9 1   
    11     7    10 1   
    12    11    12 ar  
    13    11    29 ar  
    14    12    13 ar  
    15    12    41 1   
    16    13    14 1   
    17    13    27 ar  
    18    14    15 1   
    19    15    16 1   
    20    15    25 1   
    21    15    42 1   
    22    16    17 1   
    23    16    43 1   
    24    16    44 1   
    25    17    18 1   
    26    17    24 2   
    27    18    19 1   
    28    18    45 1   
    29    19    20 1   
    30    19    46 1   
    31    19    47 1   
    32    20    21 1   
    33    20    22 1   
    34    20    23 1   
    35    21    48 1   
    36    21    49 1   
    37    21    50 1   
    38    22    51 1   
    39    23    52 1   
    40    23    53 1   
    41    23    54 1   
    42    25    26 1   
    43    25    55 1   
    44    25    56 1   
    45    26    27 1   
    46    26    30 1   
    47    27    28 ar  
    48    28    29 ar  
    49    28    57 1   
    50    29    58 1   
    51    30    31 2   
    52    30    32 2   
    53    30    33 1   
    54    33    34 ar  
    55    33    39 ar  
    56    34    35 ar  
    57    34    59 1   
    58    35    36 ar  
    59    35    60 1   
    60    36    37 1   
    61    36    38 ar  
    62    38    39 ar  
    63    38    61 1   
    64    39    62 1   
@<TRIPOS>SUBSTRUCTURE
     1 XGH         1 TEMP              0 ****  ****    0 ROOT
