@<TRIPOS>MOLECULE
XGP
   27    27     1     0     0
SMALL
bcc


@<TRIPOS>ATOM
      1 P           0.1970   -0.2400    0.2880 p5        1 XGP      1.320900
      2 C1          2.3980    1.1530    0.4500 c3        1 XGP      0.393900
      3 C2          3.6910    0.5100    1.0340 c3        1 XGP      0.082100
      4 O2          3.4380   -0.5570    1.9110 oh        1 XGP     -0.702800
      5 C3          4.4620    1.5850    1.8210 c3        1 XGP      0.089100
      6 O3          5.6890    1.0890    2.3510 oh        1 XGP     -0.657800
      7 C4          4.7980    2.7550    0.8870 c3        1 XGP      0.109100
      8 O4          5.4100    3.8300    1.5920 oh        1 XGP     -0.628800
      9 C5          3.4930    3.2720    0.2530 c3        1 XGP      0.119100
     10 O5          2.8320    2.2310   -0.4370 os        1 XGP     -0.460600
     11 C6          3.7890    4.3530   -0.7880 c3        1 XGP      0.148400
     12 O6          2.6090    4.8410   -1.3930 oh        1 XGP     -0.640800
     13 OP1         1.7330    0.3300   -0.3790 os        1 XGP     -0.519200
     14 OP2         0.7850   -1.1090    1.3770 o         1 XGP     -0.908833
     15 OP3        -0.3900    1.0480    0.7830 o         1 XGP     -0.908833
     16 OP4        -0.4580   -0.9320   -0.8620 o         1 XGP     -0.908833
     17 H1          1.7530    1.5780    1.2750 h2        1 XGP      0.065700
     18 H2          4.3370    0.1330    0.1940 h1        1 XGP      0.030700
     19 HO2         2.4900   -0.8550    1.7620 ho        1 XGP      0.517000
     20 H3          3.8400    1.9500    2.6850 h1        1 XGP      0.048700
     21 HO3         5.5340    0.1550    2.5430 ho        1 XGP      0.426000
     22 H4          5.5080    2.4070    0.0860 h1        1 XGP      0.039700
     23 HO4         5.9930    3.4230    2.2450 ho        1 XGP      0.402000
     24 H5          2.8300    3.6900    1.0620 h1        1 XGP      0.049700
     25 H6          4.2750    5.2360   -0.2960 h1        1 XGP      0.026700
     26 H6A         4.4650    3.9410   -1.5860 h1        1 XGP      0.026700
     27 HO6         2.0080    4.0850   -1.4920 ho        1 XGP      0.442000
@<TRIPOS>BOND
     1    1   13 1   
     2    1   14 1   
     3    1   15 1   
     4    1   16 1   
     5    2    3 1   
     6    2   10 1   
     7    2   13 1   
     8    2   17 1   
     9    3    4 1   
    10    3    5 1   
    11    3   18 1   
    12    4   19 1   
    13    5    6 1   
    14    5    7 1   
    15    5   20 1   
    16    6   21 1   
    17    7    8 1   
    18    7    9 1   
    19    7   22 1   
    20    8   23 1   
    21    9   10 1   
    22    9   11 1   
    23    9   24 1   
    24   11   12 1   
    25   11   25 1   
    26   11   26 1   
    27   12   27 1   
@<TRIPOS>SUBSTRUCTURE
     1 XGP         1 TEMP              0 ****  ****    0 ROOT
