@<TRIPOS>MOLECULE
molecule
   27    27     1     0     0
SMALL
bcc


@<TRIPOS>ATOM
      1 P            0.0000     0.0000     0.0000 p5         1 XGP       1.155900
      2 C1           2.3880     0.9820     0.6870 c3         1 XGP       0.408900
      3 C2           3.7150     0.3620     1.1330 c3         1 XGP       0.104100
      4 O2           3.4600    -0.7010     2.0530 oh         1 XGP      -0.583800
      5 C3           4.5680     1.4360     1.8150 c3         1 XGP       0.106100
      6 O3           5.8380     0.8840     2.1690 oh         1 XGP      -0.628800
      7 C4           4.7700     2.6050     0.8460 c3         1 XGP       0.095100
      8 O4           5.5040     3.6430     1.4960 oh         1 XGP      -0.620800
      9 C5           3.4020     3.1380     0.4110 c3         1 XGP       0.161100
     10 O5           2.6490     2.0820    -0.1880 os         1 XGP      -0.392600
     11 C6           3.5940     4.2660    -0.6050 c3         1 XGP       0.153400
     12 O6           2.3260     4.8420    -0.9230 oh         1 XGP      -0.558800
     13 OP1          1.6100     0.0000     0.0000 os         1 XGP      -0.528200
     14 OP2         -0.4930     0.0000     1.3960 o          1 XGP      -0.895500
     15 OP3         -0.5370     1.3140    -0.7590 o          1 XGP      -0.895500
     16 OP4         -0.5360    -1.3150    -0.7590 o          1 XGP      -0.895500
     17 H1           1.8470     1.3350     1.5560 h2         1 XGP       0.055700
     18 H2           4.2420    -0.0210     0.2680 h1         1 XGP       0.043700
     19 HO2          3.8240    -1.5030     1.7160 ho         1 XGP       0.394000
     20 H3           4.0600     1.7890     2.7040 h1         1 XGP       0.056700
     21 HO3          5.9550     0.9390     3.1030 ho         1 XGP       0.391000
     22 H4           5.3150     2.2600    -0.0250 h1         1 XGP       0.042700
     23 HO4          6.3970     3.6340     1.1940 ho         1 XGP       0.387000
     24 H5           2.8700     3.5120     1.2770 h1         1 XGP       0.057700
     25 H6           4.2400     5.0260    -0.1820 h1         1 XGP       0.008200
     26 H6A          4.0460     3.8680    -1.5050 h1         1 XGP       0.008200
     27 HO6          2.4520     5.5930    -1.4790 ho         1 XGP       0.370000
@<TRIPOS>BOND
     1    14     1 1
     2     1    13 1
     3     1    15 1
     4     1    16 1
     5    10     2 1
     6     2    13 1
     7     2     3 1
     8     2    17 1
     9     5     3 1
    10     3     4 1
    11     3    18 1
    12     4    19 1
    13     7     5 1
    14     5     6 1
    15     5    20 1
    16     6    21 1
    17     8     7 1
    18     9     7 1
    19     7    22 1
    20     8    23 1
    21    11     9 1
    22     9    10 1
    23     9    24 1
    24    12    11 1
    25    11    25 1
    26    11    26 1
    27    12    27 1
@<TRIPOS>SUBSTRUCTURE
     1 XGP         1 TEMP              0 ****  ****    0 ROOT
