@<TRIPOS>MOLECULE
XH2
   28    28     1     0     0
SMALL
bcc


@<TRIPOS>ATOM
      1 OAF         0.0910    0.2200   -0.2720 oh        1 XH2     -0.616800
      2 CAC         1.4830   -0.0060   -0.0560 c3        1 XH2      0.163300
      3 CAB         1.7950   -0.0370    1.4530 c3        1 XH2      0.104100
      4 OAG         1.4280    1.2140    2.0240 oh        1 XH2     -0.627800
      5 CAA         3.2580   -0.3680    1.6840 c3        1 XH2     -0.096400
      6 CAI         3.6510   -1.7070    1.0650 c3        1 XH2      0.042000
      7 CAH         5.1890   -1.6980    0.7140 c         1 XH2      0.906600
      8 OAO         5.6910   -0.6570    0.2230 o         1 XH2     -0.817300
      9 OAN         5.8060   -2.7690    0.9710 o         1 XH2     -0.817300
     10 OAM         3.3770   -2.7260    2.0240 oh        1 XH2     -0.634800
     11 CAE         2.8880   -2.0310   -0.1840 c2        1 XH2     -0.092200
     12 CAD         1.9000   -1.2900   -0.7050 c2        1 XH2     -0.168400
     13 CAL         1.2170   -1.6580   -1.9750 c3        1 XH2     -0.018200
     14 CAK        -0.0370   -2.4720   -1.6920 c3        1 XH2      0.128400
     15 OAJ        -0.6100   -2.8230   -2.9470 oh        1 XH2     -0.615800
     16 HAF        -0.1860    0.8470    0.4090 ho        1 XH2      0.404000
     17 HAC         2.0460    0.8490   -0.5350 h1        1 XH2      0.037700
     18 HAB         1.1270   -0.7830    1.9650 h1        1 XH2      0.085700
     19 HAG         2.1220    1.8440    1.7960 ho        1 XH2      0.397000
     20 HAA1        3.4590   -0.4010    2.7850 hc        1 XH2      0.065700
     21 HAA2        3.9060    0.4280    1.2280 hc        1 XH2      0.065700
     22 HAM         4.1450   -3.3220    2.0280 ho        1 XH2      0.429000
     23 HAE         3.2160   -2.9640   -0.6720 ha        1 XH2      0.129000
     24 HAL1        1.9030   -2.2540   -2.6330 hc        1 XH2      0.050200
     25 HAL2        0.9270   -0.7300   -2.5350 hc        1 XH2      0.050200
     26 HAK1       -0.7640   -1.8620   -1.0920 h1        1 XH2      0.030700
     27 HAK2        0.2190   -3.4080   -1.1260 h1        1 XH2      0.030700
     28 HAJ        -1.4490   -3.2500   -2.7480 ho        1 XH2      0.384000
@<TRIPOS>BOND
     1    1    2 1   
     2    1   16 1   
     3    2    3 1   
     4    2   12 1   
     5    2   17 1   
     6    3    4 1   
     7    3    5 1   
     8    3   18 1   
     9    4   19 1   
    10    5    6 1   
    11    5   20 1   
    12    5   21 1   
    13    6    7 1   
    14    6   10 1   
    15    6   11 1   
    16    7    8 1   
    17    7    9 1   
    18   10   22 1   
    19   11   12 2   
    20   11   23 1   
    21   12   13 1   
    22   13   14 1   
    23   13   24 1   
    24   13   25 1   
    25   14   15 1   
    26   14   26 1   
    27   14   27 1   
    28   15   28 1   
@<TRIPOS>SUBSTRUCTURE
     1 XH2         1 TEMP              0 ****  ****    0 ROOT
