@<TRIPOS>MOLECULE
molecule
   28    28     1     0     0
SMALL
bcc


@<TRIPOS>ATOM
      1 OAF          0.0000     0.0000     0.0000 oh         1 XH2      -0.618800
      2 CAC          1.4290     0.0000     0.0000 c3         1 XH2       0.197300
      3 CAB          1.9360     0.0000     1.4440 c3         1 XH2       0.116100
      4 OAG          1.6750     1.2700     2.0450 oh         1 XH2      -0.627800
      5 CAA          3.4470    -0.2610     1.4270 c3         1 XH2      -0.087400
      6 CAI          3.6850    -1.6950     0.9450 c3         1 XH2       0.075000
      7 CAH          5.1540    -1.8940     0.6780 c          1 XH2       0.869600
      8 OAO          5.8540    -0.9460     0.4090 o          1 XH2      -0.828300
      9 OAN          5.6860    -3.1250     0.7380 o          1 XH2      -0.828300
     10 OAM          3.2590    -2.6100     1.9560 oh         1 XH2      -0.626800
     11 CAE          2.9100    -1.9520    -0.3130 c2         1 XH2      -0.074200
     12 CAD          1.9250    -1.2170    -0.7220 c2         1 XH2      -0.173400
     13 CAL          1.2360    -1.6090    -2.0040 c3         1 XH2      -0.021200
     14 CAK          0.0070    -2.4620    -1.6810 c3         1 XH2       0.135400
     15 OAJ         -0.6460    -2.8330    -2.8970 oh         1 XH2      -0.628800
     16 HAF         -0.3140     0.8870    -0.0640 ho         1 XH2       0.393000
     17 HAC          1.7920     0.8870    -0.5050 h1         1 XH2       0.043700
     18 HAB          1.4380    -0.7830     2.0040 h1         1 XH2       0.057700
     19 HAG          1.3010     1.1420     2.9010 ho         1 XH2       0.392000
     20 HAA1         3.8480    -0.1420     2.4260 hc         1 XH2       0.063200
     21 HAA2         3.9280     0.4340     0.7500 hc         1 XH2       0.063200
     22 HAM          4.0130    -3.0160     2.3510 ho         1 XH2       0.423000
     23 HAE          3.1920    -2.8050    -0.9180 ha         1 XH2       0.137000
     24 HAL1         0.9270    -0.7170    -2.5360 hc         1 XH2       0.046200
     25 HAL2         1.9190    -2.1800    -2.6220 hc         1 XH2       0.046200
     26 HAK1        -0.6760    -1.8910    -1.0630 h1         1 XH2       0.033700
     27 HAK2         0.3160    -3.3540    -1.1490 h1         1 XH2       0.033700
     28 HAJ         -1.3660    -3.4110    -2.7030 ho         1 XH2       0.388000
@<TRIPOS>BOND
     1     1     2 1
     2     2     3 1
     3     2    12 1
     4     3     4 1
     5     3     5 1
     6     5     6 1
     7     6     7 1
     8     6    10 1
     9     6    11 1
    10     7     8 1
    11     7     9 1
    12    11    12 2
    13    12    13 1
    14    13    14 1
    15    14    15 1
    16     1    16 1
    17     2    17 1
    18     3    18 1
    19     4    19 1
    20     5    20 1
    21     5    21 1
    22    10    22 1
    23    11    23 1
    24    13    24 1
    25    13    25 1
    26    14    26 1
    27    14    27 1
    28    15    28 1
@<TRIPOS>SUBSTRUCTURE
     1 XH2         1 TEMP              0 ****  ****    0 ROOT
