@<TRIPOS>MOLECULE
XH8
   42    44     1     0     0
SMALL
bcc


@<TRIPOS>ATOM
      1 N01          0.0000     0.0000     0.0000 nv         1 XH8      -0.662500
      2 C02          1.3870     0.0000     0.0000 ca         1 XH8       0.503200
      3 C03          2.0710     0.0000     1.2240 ca         1 XH8      -0.224300
      4 C04          3.4330     0.0010     1.2410 ca         1 XH8      -0.053000
      5 C05          4.1160    -0.0010     0.0080 ca         1 XH8      -0.151300
      6 C06          5.5180    -0.0020    -0.0480 ca         1 XH8      -0.083000
      7 C07          6.1450    -0.0030    -1.2590 ca         1 XH8      -0.078000
      8 C08          5.4100    -0.0030    -2.4420 ca         1 XH8      -0.086300
      9 C09          6.1350    -0.0050    -3.7640 c3         1 XH8       0.200100
     10 N10          6.3690    -1.3890    -4.1930 n7         1 XH8      -0.582200
     11 C11          7.0750    -1.4300    -5.4800 c3         1 XH8       0.142800
     12 C12          7.3000    -2.8860    -5.8920 c3         1 XH8      -0.028400
     13 C13          8.0350    -2.9280    -7.2340 c3         1 XH8       0.037900
     14 C14          8.2580    -4.3620    -7.6410 ca         1 XH8      -0.209600
     15 C15          7.3120    -5.0300    -8.4050 ca         1 XH8      -0.067000
     16 C16          7.5590    -6.3480    -8.7550 ca         1 XH8      -0.219300
     17 C17          8.7300    -6.9490    -8.3340 ca         1 XH8       0.399200
     18 N18          9.6070    -6.2830    -7.6080 nb         1 XH8      -0.580000
     19 C19          9.4090    -5.0260    -7.2610 ca         1 XH8       0.407200
     20 C20          4.0490    -0.0030    -2.4240 ca         1 XH8      -0.141300
     21 C21          3.3680    -0.0020    -1.1950 ca         1 XH8       0.381600
     22 N22          2.0310    -0.0060    -1.1480 nb         1 XH8      -0.580000
     23 H011        -0.5000    -0.8670     0.0030 hn         1 XH8       0.276800
     24 H012        -0.5000     0.8660    -0.0320 hn         1 XH8       0.276800
     25 H03          1.5180     0.0550     2.1540 ha         1 XH8       0.116000
     26 H04          3.9770     0.0010     2.1780 ha         1 XH8       0.110000
     27 H06          6.1000    -0.0020     0.8660 ha         1 XH8       0.107000
     28 H07          7.2270    -0.0030    -1.3010 ha         1 XH8       0.110000
     29 H091         7.0840     0.5050    -3.6550 h1         1 XH8       0.010700
     30 H092         5.5330     0.5060    -4.5060 h1         1 XH8       0.010700
     31 H20          3.4930    -0.0030    -3.3540 ha         1 XH8       0.117000
     32 H10          5.4930    -1.8650    -4.2770 hn         1 XH8       0.257800
     33 H111         8.0310    -0.9300    -5.3840 h1         1 XH8       0.006200
     34 H112         6.4790    -0.9290    -6.2340 h1         1 XH8       0.006200
     35 H121         6.3440    -3.3860    -5.9890 hc         1 XH8       0.024200
     36 H122         7.8960    -3.3870    -5.1390 hc         1 XH8       0.024200
     37 H131         8.9910    -2.4270    -7.1380 hc         1 XH8       0.019200
     38 H132         7.4400    -2.4270    -7.9880 hc         1 XH8       0.019200
     39 H15          6.4030    -4.5330    -8.7210 ha         1 XH8       0.110000
     40 H19         10.1520    -4.5120    -6.6640 h4         1 XH8      -0.016900
     41 H16          6.8430    -6.9010    -9.3510 ha         1 XH8       0.112000
     42 H17          8.9290    -7.9800    -8.6010 h4         1 XH8      -0.020900
@<TRIPOS>BOND
     1     1     2 1   
     2     1    23 1   
     3     1    24 1   
     4     2     3 ar  
     5     2    22 ar  
     6     3     4 ar  
     7     3    25 1   
     8     4     5 ar  
     9     4    26 1   
    10     5     6 ar  
    11     5    21 ar  
    12     6     7 ar  
    13     6    27 1   
    14     7     8 ar  
    15     7    28 1   
    16     8     9 1   
    17     8    20 ar  
    18     9    10 1   
    19     9    29 1   
    20     9    30 1   
    21    10    11 1   
    22    10    32 1   
    23    11    12 1   
    24    11    33 1   
    25    11    34 1   
    26    12    13 1   
    27    12    35 1   
    28    12    36 1   
    29    13    14 1   
    30    13    37 1   
    31    13    38 1   
    32    14    15 ar  
    33    14    19 ar  
    34    15    16 ar  
    35    15    39 1   
    36    16    17 ar  
    37    16    41 1   
    38    17    18 ar  
    39    17    42 1   
    40    18    19 ar  
    41    19    40 1   
    42    20    21 ar  
    43    20    31 1   
    44    21    22 ar  
@<TRIPOS>SUBSTRUCTURE
     1 XH8         1 TEMP              0 ****  ****    0 ROOT
