@<TRIPOS>MOLECULE
XHA
   52    53     1     0     0
SMALL
bcc


@<TRIPOS>ATOM
      1 C4           0.0000     0.0000     0.0000 c3         1 XHA       0.128500
      2 C14         -6.2060    -4.0030     2.7520 ca         1 XHA      -0.106000
      3 C5           1.5490     0.0000     0.0000 c3         1 XHA       0.163100
      4 C6           1.8620     0.0000     1.5190 c3         1 XHA       0.145100
      5 C11         -3.9790    -0.9850     2.3190 c3         1 XHA       0.029900
      6 C7           0.7350    -0.8770     2.1060 c3         1 XHA       0.113500
      7 C8           0.2710    -0.3000     3.4450 c3         1 XHA       0.188400
      8 C10         -2.7290    -1.4130     1.5480 c3         1 XHA      -0.029400
      9 C12         -5.0750    -1.9960     2.0990 ca         1 XHA      -0.082300
     10 C13         -5.2010    -3.0750     2.9530 ca         1 XHA      -0.067000
     11 N1          -2.7410    -0.9700    -2.3560 ns         1 XHA      -0.193900
     12 N2          -0.3780    -0.8610     1.1400 n3         1 XHA      -0.512600
     13 C3          -0.5320    -0.5850    -1.3100 c3         1 XHA      -0.087400
     14 C1          -4.1890    -0.7610    -2.4310 c3         1 XHA       0.065300
     15 C2          -2.0220    -0.3690    -1.3870 c          1 XHA       0.576100
     16 O1          -2.5750     0.3460    -0.5780 o          1 XHA      -0.660100
     17 O2           2.0610    -1.1770    -0.6290 oh         1 XHA      -0.553800
     18 O3           3.1410    -0.5860     1.7710 oh         1 XHA      -0.564800
     19 O4          -0.0850     1.0740     3.2730 oh         1 XHA      -0.595800
     20 C15         -7.0830    -3.8540     1.6940 ca         1 XHA      -0.057000
     21 C16         -6.9530    -2.7780     0.8350 ca         1 XHA      -0.213300
     22 C17         -7.9080    -2.6150    -0.3180 c3         1 XHA       0.640200
     23 F1          -8.5890    -1.4000    -0.1920 f          1 XHA      -0.209967
     24 F2          -7.1940    -2.6260    -1.5200 f          1 XHA      -0.209967
     25 F3          -8.8290    -3.6680    -0.3130 f          1 XHA      -0.209967
     26 C18         -5.9480    -1.8500     1.0370 ca         1 XHA      -0.041000
     27 H1          -0.3740     1.0050     0.1500 h1         1 XHA       0.052700
     28 H3           1.9330     0.8970    -0.4710 h1         1 XHA       0.002700
     29 H4           1.8080     1.0060     1.9180 h1         1 XHA       0.026700
     30 H5          -3.7490    -0.9260     3.3760 hc         1 XHA       0.021200
     31 H6          -4.3060    -0.0140     1.9650 hc         1 XHA       0.021200
     32 H7           1.0910    -1.8910     2.2390 h1         1 XHA       0.063700
     33 H8          -0.5890    -0.8550     3.7990 h1         1 XHA       0.005700
     34 H9           1.0730    -0.3780     4.1690 h1         1 XHA       0.005700
     35 H12         -2.9590    -1.4720     0.4910 hc         1 XHA       0.023700
     36 H13         -2.4020    -2.3830     1.9020 hc         1 XHA       0.023700
     37 H14         -4.5140    -3.1930     3.7820 ha         1 XHA       0.108000
     38 H15         -2.2810    -1.5360    -3.0420 hn         1 XHA       0.172500
     39 H17         -0.3190    -1.6460    -1.3440 hc         1 XHA       0.040200
     40 H18         -0.0520    -0.0920    -2.1470 hc         1 XHA       0.040200
     41 H19         -4.6980    -1.5790    -1.9350 h1         1 XHA       0.015367
     42 H20         -4.4950    -0.7220    -3.4700 h1         1 XHA       0.015367
     43 H21         -4.4450     0.1720    -1.9440 h1         1 XHA       0.015367
     44 H22          2.7720    -0.9430    -1.2010 ho         1 XHA       0.384000
     45 H23          3.7390     0.0800     2.0700 ho         1 XHA       0.381000
     46 H24         -0.0060     1.5240     4.0980 ho         1 XHA       0.390000
     47 H25         -7.8700    -4.5810     1.5370 ha         1 XHA       0.119000
     48 H26         -5.8460    -1.0060     0.3650 ha         1 XHA       0.123000
     49 C9          -1.6160    -0.3870     1.7720 c3         1 XHA       0.064800
     50 H2          -6.3050    -4.8480     3.4240 ha         1 XHA       0.108000
     51 H10         -1.9050     0.5610     1.3330 h1         1 XHA       0.060700
     52 H11         -1.4520    -0.2570     2.8350 h1         1 XHA       0.060700
@<TRIPOS>BOND
     1     1     3 1   
     2     1    12 1   
     3     1    13 1   
     4     1    27 1   
     5     2    10 ar  
     6     2    20 ar  
     7     2    50 1   
     8     3     4 1   
     9     3    17 1   
    10     3    28 1   
    11     4     6 1   
    12     4    18 1   
    13     4    29 1   
    14     5     8 1   
    15     5     9 1   
    16     5    30 1   
    17     5    31 1   
    18     6     7 1   
    19     6    12 1   
    20     6    32 1   
    21     7    19 1   
    22     7    33 1   
    23     7    34 1   
    24     8    35 1   
    25     8    36 1   
    26     8    49 1   
    27     9    10 ar  
    28     9    26 ar  
    29    10    37 1   
    30    11    14 1   
    31    11    15 1   
    32    11    38 1   
    33    12    49 1   
    34    13    15 1   
    35    13    39 1   
    36    13    40 1   
    37    14    41 1   
    38    14    42 1   
    39    14    43 1   
    40    15    16 2   
    41    17    44 1   
    42    18    45 1   
    43    19    46 1   
    44    20    21 ar  
    45    20    47 1   
    46    21    22 1   
    47    21    26 ar  
    48    22    23 1   
    49    22    24 1   
    50    22    25 1   
    51    26    48 1   
    52    49    51 1   
    53    49    52 1   
@<TRIPOS>SUBSTRUCTURE
     1 XHA         1 TEMP              0 ****  ****    0 ROOT
