@<TRIPOS>MOLECULE
XHP
   21    22     1     0     0
SMALL
bcc


@<TRIPOS>ATOM
      1 N1           0.0000     0.0000     0.0000 nc         1 XHP      -0.441000
      2 C2           1.3090     0.0000     0.0000 cd         1 XHP       0.050800
      3 N2           1.9520    -0.0000    -1.2080 nz         1 XHP       0.194400
      4 N3           2.0720     0.0000     1.1290 ns         1 XHP      -0.053400
      5 C4           1.5100     0.0000     2.3580 c          1 XHP       0.542200
      6 O4           2.1930    -0.0000     3.3650 o          1 XHP      -0.533500
      7 N5          -0.5780    -0.0000     3.5880 ne         1 XHP      -0.246300
      8 C6          -1.9170    -0.0000     3.6800 ce         1 XHP      -0.107600
      9 C7          -2.7380    -0.0010     2.4120 c3         1 XHP       0.163000
     10 N8          -2.0180     0.0010     1.1280 n2         1 XHP      -0.347900
     11 C9          -0.7080     0.0000     1.1490 cc         1 XHP       0.405000
     12 C10          0.0290     0.0000     2.4330 cc         1 XHP       0.134000
     13 C6A         -2.5160    -0.0000     4.8800 c2         1 XHP       0.045000
     14 HN2          2.5250     0.8170    -1.2810 hn         1 XHP       0.223800
     15 HN2A         1.2750    -0.0000    -1.9460 hn         1 XHP       0.223800
     16 HN3          3.0700    -0.0000     1.0470 hn         1 XHP       0.189500
     17 H7          -3.3750     0.8750     2.4330 h1         1 XHP       0.062700
     18 H5          -3.3710    -0.8800     2.4320 h1         1 XHP       0.062700
     19 H6A         -1.9190    -0.0000     5.7840 ha         1 XHP       0.105000
     20 H6AA        -3.5980    -0.0000     4.9450 ha         1 XHP       0.105000
     21 H23          2.5250    -0.8170    -1.2810 hn         1 XHP       0.223800
@<TRIPOS>BOND
     1     1     2 2   
     2     1    11 1   
     3     2     3 1   
     4     2     4 1   
     5     3    14 1   
     6     3    15 1   
     7     3    21 1   
     8     4     5 1   
     9     4    16 1   
    10     5     6 2   
    11     5    12 1   
    12     7     8 1   
    13     7    12 2   
    14     8     9 1   
    15     8    13 2   
    16     9    10 1   
    17     9    17 1   
    18     9    18 1   
    19    10    11 2   
    20    11    12 1   
    21    13    19 1   
    22    13    20 1   
@<TRIPOS>SUBSTRUCTURE
     1 XHP         1 TEMP              0 ****  ****    0 ROOT
