@<TRIPOS>MOLECULE
molecule
   21    22     1     0     0
SMALL
bcc


@<TRIPOS>ATOM
      1 N1           0.0000     0.0000     0.0000 nc         1 XHP      -0.625000
      2 C2           1.3090     0.0000     0.0000 cd         1 XHP       0.514800
      3 N2           1.9520    -0.0000    -1.2080 nz         1 XHP      -0.743600
      4 N3           2.0720     0.0000     1.1290 ns         1 XHP      -0.504400
      5 C4           1.5100     0.0000     2.3580 c          1 XHP       0.637200
      6 O4           2.1930    -0.0000     3.3650 o          1 XHP      -0.492500
      7 N5          -0.5780    -0.0000     3.5880 ne         1 XHP      -0.419300
      8 C6          -1.9170    -0.0000     3.6800 ce         1 XHP      -0.020600
      9 C7          -2.7380    -0.0010     2.4120 c3         1 XHP       0.103000
     10 N8          -2.0180     0.0010     1.1280 n2         1 XHP      -0.445900
     11 C9          -0.7080     0.0000     1.1490 cc         1 XHP       0.508000
     12 C10          0.0290     0.0000     2.4330 cc         1 XHP       0.219000
     13 C6A         -2.5160    -0.0000     4.8800 c2         1 XHP      -0.046000
     14 HN2          2.5250    -0.8170    -1.2810 hn         1 XHP       0.482467
     15 HN2A         1.2750     0.0000    -1.9460 hn         1 XHP       0.482467
     16 HN3          3.0700    -0.0000     1.0470 hn         1 XHP       0.345500
     17 H7          -3.3710    -0.8800     2.4320 h1         1 XHP       0.107200
     18 H5          -3.3750     0.8750     2.4330 h1         1 XHP       0.107200
     19 H6A         -3.5980    -0.0000     4.9450 ha         1 XHP       0.153500
     20 H6AA        -1.9190    -0.0000     5.7840 ha         1 XHP       0.153500
     21 H23          2.5250     0.8170    -1.2810 hn         1 XHP       0.482467
@<TRIPOS>BOND
     1     1    11 1
     2     2     1 2
     3     3     2 1
     4     3    14 1
     5     3    15 1
     6     4     2 1
     7     4     5 1
     8     4    16 1
     9     5    12 1
    10     6     5 2
    11     7     8 1
    12     8     9 1
    13     8    13 2
    14     9    17 1
    15     9    18 1
    16    10     9 1
    17    11    10 2
    18    12     7 2
    19    12    11 1
    20    13    19 1
    21    13    20 1
    22    21     3 1
@<TRIPOS>SUBSTRUCTURE
     1 XHP         1 TEMP              0 ****  ****    0 ROOT
