@<TRIPOS>MOLECULE
molecule
   38    39     1     0     0
SMALL
bcc


@<TRIPOS>ATOM
      1 F1           0.0000     0.0000     0.0000 f          1 XI1      -0.206633
      2 C2           1.4000     0.0000     0.0000 c3         1 XI1       0.509700
      3 F3           1.8660     0.0000     1.3180 f          1 XI1      -0.206633
      4 F4           1.8660    -1.1410    -0.6600 f          1 XI1      -0.206633
      5 S5           2.0040     1.4810    -0.8560 s6         1 XI1       1.295900
      6 O6           3.4120     1.6060    -0.7040 o          1 XI1      -0.562800
      7 O7           1.3910     1.6050    -2.1320 o          1 XI1      -0.562800
      8 N8           1.3860     2.7450     0.0200 n7         1 XI1      -0.888100
      9 C9           1.8150     2.9570     1.4030 c3         1 XI1       0.230500
     10 C11          1.8710     4.4570     1.6960 c3         1 XI1      -0.099400
     11 C12          2.3190     4.6780     3.1420 c3         1 XI1      -0.089900
     12 C13          1.3250     4.0110     4.0930 c3         1 XI1       0.136100
     13 C15          1.2690     2.5090     3.8000 c3         1 XI1      -0.089900
     14 C16          0.8200     2.2880     2.3540 c3         1 XI1      -0.099400
     15 O17          1.7430     4.2170     5.4440 os         1 XI1      -0.315900
     16 C18          0.7840     4.1670     6.4010 ca         1 XI1       0.176100
     17 C19          1.1040     4.4690     7.7200 ca         1 XI1      -0.166000
     18 C20          0.1330     4.4180     8.6960 ca         1 XI1      -0.045000
     19 C21         -1.1760     4.0630     8.3590 ca         1 XI1      -0.053000
     20 C22         -2.1890     4.0090     9.3700 cg         1 XI1       0.241800
     21 N23         -2.9780     3.9630    10.1860 n1         1 XI1      -0.352800
     22 C24         -1.4950     3.7600     7.0310 ca         1 XI1       0.099400
     23 Cl25        -3.1180     3.3170     6.6050 cl         1 XI1      -0.080400
     24 C26         -0.5170     3.8180     6.0600 ca         1 XI1      -0.232000
     25 H8           0.7410     3.3800    -0.4070 hn         1 XI1       0.469800
     26 H9           2.7980     2.5260     1.5510 h1         1 XI1       0.081700
     27 H111         0.8870     4.8880     1.5550 hc         1 XI1       0.059450
     28 H112         2.5770     4.9290     1.0240 hc         1 XI1       0.059450
     29 H161        -0.1620     2.7240     2.2120 hc         1 XI1       0.059450
     30 H162         0.7830     1.2260     2.1480 hc         1 XI1       0.059450
     31 H121         2.3570     5.7410     3.3490 hc         1 XI1       0.063700
     32 H122         3.3010     4.2430     3.2850 hc         1 XI1       0.063700
     33 H13          0.3420     4.4420     3.9450 h1         1 XI1       0.053700
     34 H151         0.5620     2.0380     4.4730 hc         1 XI1       0.063700
     35 H152         2.2530     2.0780     3.9420 hc         1 XI1       0.063700
     36 H19          2.1190     4.7440     7.9800 ha         1 XI1       0.156000
     37 H26         -0.7620     3.5840     5.0310 ha         1 XI1       0.157000
     38 H20          0.3840     4.6540     9.7230 ha         1 XI1       0.154000
@<TRIPOS>BOND
     1     1     2 1
     2     2     3 1
     3     2     4 1
     4     2     5 1
     5     5     6 2
     6     5     7 2
     7     5     8 1
     8     8     9 1
     9     9    10 1
    10     9    14 1
    11    10    11 1
    12    11    12 1
    13    12    13 1
    14    12    15 1
    15    13    14 1
    16    15    16 1
    17    16    17 ar
    18    16    24 ar
    19    17    18 ar
    20    18    19 ar
    21    19    20 1
    22    19    22 ar
    23    20    21 3
    24    22    23 1
    25    22    24 ar
    26     8    25 1
    27     9    26 1
    28    10    27 1
    29    10    28 1
    30    14    29 1
    31    14    30 1
    32    11    31 1
    33    11    32 1
    34    12    33 1
    35    13    34 1
    36    13    35 1
    37    17    36 1
    38    24    37 1
    39    18    38 1
@<TRIPOS>SUBSTRUCTURE
     1 XI1         1 TEMP              0 ****  ****    0 ROOT
