@<TRIPOS>MOLECULE
molecule
   41    43     1     0     0
SMALL
bcc


@<TRIPOS>ATOM
      1 F26          0.0000     0.0000     0.0000 f          1 XI2      -0.131900
      2 C22          1.3510     0.0000     0.0000 ca         1 XI2       0.164900
      3 C21          2.0420     0.0000     1.1990 ca         1 XI2      -0.178000
      4 C20          3.4250     0.0000     1.2010 ca         1 XI2      -0.071000
      5 C23          2.0410    -0.0060    -1.2000 ca         1 XI2      -0.206000
      6 C24          3.4250    -0.0060    -1.2020 ca         1 XI2       0.168900
      7 F25          4.1000    -0.0130    -2.3730 f          1 XI2      -0.118900
      8 C19          4.1190    -0.0000     0.0010 ca         1 XI2       0.063100
      9 O18          5.4790    -0.0010     0.0020 os         1 XI2      -0.319400
     10 C3           6.1150     1.1810    -0.1840 ca         1 XI2       0.946300
     11 N2           5.3920     2.2930    -0.2490 nb         1 XI2      -0.831000
     12 N4           7.4310     1.1850    -0.2880 nb         1 XI2      -0.784000
     13 C6           8.0890     2.3260    -0.4710 ca         1 XI2       0.558800
     14 N7           9.4020     2.6610    -0.6120 na         1 XI2      -0.131800
     15 N8           9.5120     4.0460    -0.7790 nc         1 XI2      -0.580100
     16 C9           8.3280     4.5980    -0.7490 cd         1 XI2       0.654800
     17 C5           7.3510     3.5290    -0.5510 ca         1 XI2      -0.544500
     18 C1           5.9620     3.4700    -0.4290 ca         1 XI2       0.574200
     19 N10          8.0470     5.9590    -0.8840 nu         1 XI2      -0.878200
     20 C11          9.1390     6.9160    -1.0800 c3         1 XI2       0.271500
     21 C13          9.7140     7.3190     0.2800 c3         1 XI2      -0.105100
     22 C12          8.6050     8.1590    -1.7950 c3         1 XI2      -0.228600
     23 S14          7.9230     7.6820    -3.4060 s6         1 XI2       1.108000
     24 O15          8.9820     7.2040    -4.2240 o          1 XI2      -0.607800
     25 O16          6.7870     6.8560    -3.1910 o          1 XI2      -0.607800
     26 C17          7.3610     9.2770    -4.0630 c3         1 XI2      -0.230300
     27 H21          1.4990     0.0000     2.1360 ha         1 XI2       0.154000
     28 H20          3.9650     0.0030     2.1400 ha         1 XI2       0.157000
     29 H23          1.4980    -0.0340    -2.1370 ha         1 XI2       0.165000
     30 HN7         10.1680     2.0170    -0.5980 hn         1 XI2       0.345700
     31 H1           5.3640     4.3720    -0.4820 h4         1 XI2       0.033100
     32 HN10         7.1040     6.2850    -0.8110 hn         1 XI2       0.461800
     33 H11          9.9160     6.4600    -1.6800 h1         1 XI2       0.091700
     34 H13         10.4310     8.1190     0.1460 hc         1 XI2       0.047033
     35 H13A         8.9120     7.6570     0.9260 hc         1 XI2       0.047033
     36 H13B        10.2050     6.4650     0.7310 hc         1 XI2       0.047033
     37 H12          7.8270     8.6150    -1.1940 h1         1 XI2       0.101200
     38 H12A         9.4120     8.8670    -1.9390 h1         1 XI2       0.101200
     39 H17          8.2020     9.9560    -4.1300 h1         1 XI2       0.097700
     40 H17A         6.6110     9.6950    -3.4030 h1         1 XI2       0.097700
     41 H17B         6.9350     9.1320    -5.0480 h1         1 XI2       0.097700
@<TRIPOS>BOND
     1     1     2 1
     2     2     3 ar
     3     2     5 ar
     4     3     4 ar
     5     4     8 ar
     6     5     6 ar
     7     6     7 1
     8     6     8 ar
     9     8     9 1
    10     9    10 1
    11    10    11 ar
    12    10    12 ar
    13    11    18 ar
    14    12    13 ar
    15    13    14 1
    16    13    17 ar
    17    14    15 1
    18    15    16 2
    19    16    17 1
    20    16    19 1
    21    17    18 ar
    22    19    20 1
    23    20    21 1
    24    20    22 1
    25    22    23 1
    26    23    24 2
    27    23    25 2
    28    23    26 1
    29     3    27 1
    30     4    28 1
    31     5    29 1
    32    14    30 1
    33    18    31 1
    34    19    32 1
    35    20    33 1
    36    21    34 1
    37    21    35 1
    38    21    36 1
    39    22    37 1
    40    22    38 1
    41    26    39 1
    42    26    40 1
    43    26    41 1
@<TRIPOS>SUBSTRUCTURE
     1 XI2         1 TEMP              0 ****  ****    0 ROOT
