@<TRIPOS>MOLECULE
molecule
   21    21     1     0     0
SMALL
bcc


@<TRIPOS>ATOM
      1 O8           0.0000     0.0000     0.0000 o          1 XI7      -0.501100
      2 C9           1.2080     0.0000     0.0000 c          1 XI7       0.462100
      3 C10          1.9530     0.0000     1.2910 c          1 XI7       0.809600
      4 O11          1.2800     0.0020     2.4560 o          1 XI7      -0.814300
      5 O10          3.1660    -0.0010     1.2910 o          1 XI7      -0.814300
      6 C8           1.9610    -0.0080    -1.3050 c3         1 XI7      -0.279400
      7 C7           0.9820    -0.0130    -2.4510 c          1 XI7       0.554700
      8 C1           1.4730    -0.0220    -3.8380 ca         1 XI7      -0.141600
      9 C6           0.5660    -0.0270    -4.9040 ca         1 XI7      -0.084000
     10 C5           1.0340    -0.0340    -6.2010 ca         1 XI7      -0.160500
     11 C4           2.3950    -0.0350    -6.4500 ca         1 XI7      -0.122000
     12 C3           3.2980    -0.0300    -5.4010 ca         1 XI7      -0.160500
     13 C2           2.8460    -0.0180    -4.0980 ca         1 XI7      -0.084000
     14 O14         -0.2110    -0.0120    -2.2290 o          1 XI7      -0.488100
     15 H81C         2.5830    -0.8940    -1.3570 hc         1 XI7       0.083200
     16 H82C         2.5850     0.8750    -1.3670 hc         1 XI7       0.083200
     17 H6          -0.4960    -0.1120    -4.7110 ha         1 XI7       0.149500
     18 H2           3.7650    -0.0050    -3.5240 ha         1 XI7       0.149500
     19 H5           0.3340    -0.0390    -7.0270 ha         1 XI7       0.122000
     20 H4           2.7560    -0.0400    -7.4710 ha         1 XI7       0.116000
     21 H3           4.3620    -0.0350    -5.6040 ha         1 XI7       0.122000
@<TRIPOS>BOND
     1     1     2 2
     2     2     3 1
     3     2     6 1
     4     3     4 1
     5     3     5 1
     6     6     7 1
     7     7     8 1
     8     7    14 2
     9     8     9 ar
    10     8    13 ar
    11     9    10 ar
    12    10    11 ar
    13    11    12 ar
    14    12    13 ar
    15     6    15 1
    16     6    16 1
    17     9    17 1
    18    13    18 1
    19    10    19 1
    20    11    20 1
    21    12    21 1
@<TRIPOS>SUBSTRUCTURE
     1 XI7         1 TEMP              0 ****  ****    0 ROOT
