@<TRIPOS>MOLECULE
XI7
   21    21     1     0     0
SMALL
bcc


@<TRIPOS>ATOM
      1 O8          0.5760   -1.1890   -0.4500 o         1 XI7     -0.562100
      2 C9          1.4800   -0.3520   -0.4910 c         1 XI7      0.468100
      3 C10         2.8680   -0.5200    0.1550 c         1 XI7      0.857600
      4 O11         2.9610   -0.3640    1.3960 o         1 XI7     -0.806800
      5 O10         3.8200   -0.7650   -0.6390 o         1 XI7     -0.806800
      6 C8          1.3110    0.9780   -1.1960 c3        1 XI7     -0.296400
      7 C7          0.5690    0.9160   -2.4970 c         1 XI7      0.600700
      8 C1          1.2570    0.3130   -3.6630 ca        1 XI7     -0.172600
      9 C6          0.6660    0.4390   -4.9300 ca        1 XI7     -0.081500
     10 C5          1.2840   -0.1030   -6.0540 ca        1 XI7     -0.159000
     11 C4          2.4960   -0.7820   -5.9220 ca        1 XI7     -0.119000
     12 C3          3.0830   -0.9170   -4.6660 ca        1 XI7     -0.159000
     13 C2          2.4710   -0.3730   -3.5350 ca        1 XI7     -0.081500
     14 O14        -0.5680    1.4010   -2.6120 o         1 XI7     -0.572100
     15 H81C        0.7640    1.6600   -0.4890 hc        1 XI7      0.084700
     16 H82C        2.3320    1.4090   -1.3820 hc        1 XI7      0.084700
     17 H6         -0.2950    0.9700   -5.0200 ha        1 XI7      0.177500
     18 H2          2.9540   -0.5010   -2.5400 ha        1 XI7      0.177500
     19 H5          0.8150    0.0020   -7.0420 ha        1 XI7      0.126000
     20 H4          2.9830   -1.2130   -6.8080 ha        1 XI7      0.115000
     21 H3          4.0350   -1.4570   -4.5530 ha        1 XI7      0.126000
@<TRIPOS>BOND
     1    1    2 2   
     2    2    3 1   
     3    2    6 1   
     4    3    4 1   
     5    3    5 1   
     6    6    7 1   
     7    6   15 1   
     8    6   16 1   
     9    7    8 1   
    10    7   14 2   
    11    8    9 ar  
    12    8   13 ar  
    13    9   10 ar  
    14    9   17 1   
    15   10   11 ar  
    16   10   19 1   
    17   11   12 ar  
    18   11   20 1   
    19   12   13 ar  
    20   12   21 1   
    21   13   18 1   
@<TRIPOS>SUBSTRUCTURE
     1 XI7         1 TEMP              0 ****  ****    0 ROOT
