@<TRIPOS>MOLECULE
XIF
   19    19     1     0     0
SMALL
bcc


@<TRIPOS>ATOM
      1 N1           0.0000     0.0000     0.0000 n7         1 XIF      -0.576200
      2 C2           1.4680     0.0000     0.0000 c3         1 XIF       0.122800
      3 C3           1.9790     0.0000     1.4420 c3         1 XIF       0.178100
      4 O3           3.4080     0.0210     1.4430 oh         1 XIF      -0.584800
      5 C4           1.4500     1.2400     2.1680 c3         1 XIF       0.180100
      6 O4           1.8760     1.2150     3.5300 oh         1 XIF      -0.580800
      7 C5          -0.0800     1.2400     2.1110 c3         1 XIF      -0.049400
      8 C6          -0.5320     1.2040     0.6490 c3         1 XIF       0.148800
      9 HN1         -0.3340    -0.0460    -0.9420 hn         1 XIF       0.253800
     10 H21          1.8280     0.8860    -0.5090 h1         1 XIF       0.013200
     11 H22          1.8270    -0.8860    -0.5090 h1         1 XIF       0.013200
     12 H3           1.6260    -0.8900     1.9490 h1         1 XIF       0.022700
     13 HO3          3.7350    -0.8290     1.6860 ho         1 XIF       0.393000
     14 H4           1.8280     2.1310     1.6810 h1         1 XIF       0.006700
     15 HO4          2.2180     2.0610     3.7690 ho         1 XIF       0.391000
     16 H51         -0.4590     2.1380     2.5830 hc         1 XIF       0.028200
     17 H52         -0.4600     0.3660     2.6270 hc         1 XIF       0.028200
     18 H61         -1.6150     1.1870     0.6080 h1         1 XIF       0.005700
     19 H62         -0.1610     2.0830     0.1360 h1         1 XIF       0.005700
@<TRIPOS>BOND
     1     1     2 1   
     2     1     8 1   
     3     1     9 1   
     4     2     3 1   
     5     2    10 1   
     6     2    11 1   
     7     3     4 1   
     8     3     5 1   
     9     3    12 1   
    10     4    13 1   
    11     5     6 1   
    12     5     7 1   
    13     5    14 1   
    14     6    15 1   
    15     7     8 1   
    16     7    16 1   
    17     7    17 1   
    18     8    18 1   
    19     8    19 1   
@<TRIPOS>SUBSTRUCTURE
     1 XIF         1 TEMP              0 ****  ****    0 ROOT
