@<TRIPOS>MOLECULE
XIG
   69    73     1     0     0
SMALL
bcc


@<TRIPOS>ATOM
      1 C1           0.0000     0.0000     0.0000 c3         1 XIG       0.242700
      2 O2           1.4290     0.0000     0.0000 os         1 XIG      -0.326900
      3 C3           2.0460     0.0000     1.2110 ca         1 XIG       0.103100
      4 C4           1.2890    -0.0070     2.3740 ca         1 XIG      -0.177500
      5 C5           1.9120    -0.0080     3.6050 ca         1 XIG      -0.070000
      6 C6           3.3040    -0.0030     3.6790 cp         1 XIG      -0.011000
      7 C7           4.0620     0.0040     2.5090 ca         1 XIG      -0.070000
      8 C8           3.4320    -0.0010     1.2820 ca         1 XIG      -0.177500
      9 C9           3.9780    -0.0030     5.0000 cp         1 XIG      -0.078000
     10 C10          5.3700     0.0030     5.0760 ca         1 XIG      -0.095500
     11 C11          5.9910     0.0030     6.3080 ca         1 XIG      -0.081500
     12 C12          5.2350    -0.0040     7.4670 ca         1 XIG      -0.080300
     13 C13          5.9200    -0.0040     8.8100 c3         1 XIG       0.076300
     14 N14          6.1360     1.3770     9.2480 n          1 XIG      -0.178800
     15 C15          7.3740     2.0740     8.8910 c3         1 XIG       0.111000
     16 C16          7.0300     3.3560     8.1350 c3         1 XIG      -0.085400
     17 C17          8.3160     4.1740     7.9630 c3         1 XIG      -0.026400
     18 C18          8.7330     4.7100     9.3300 c3         1 XIG       0.032900
     19 C19          8.7740     3.5990    10.3450 ca         1 XIG      -0.056300
     20 C20          9.4770     3.8220    11.5220 ca         1 XIG      -0.130000
     21 C21          9.5480     2.8440    12.4930 ca         1 XIG      -0.131000
     22 C22          8.9150     1.6320    12.2940 ca         1 XIG      -0.112000
     23 C23          8.2180     1.4070    11.1250 ca         1 XIG      -0.082000
     24 C24          8.1460     2.3900    10.1460 ca         1 XIG      -0.046300
     25 C25          5.1950     2.0070     9.9800 c          1 XIG       0.671700
     26 O26          5.4090     3.1210    10.4140 o          1 XIG      -0.627100
     27 C27          3.9010     1.3400    10.2540 ca         1 XIG      -0.185600
     28 C28          3.8680     0.1710    11.0080 ca         1 XIG      -0.150000
     29 C29          2.6520    -0.4560    11.2660 ca         1 XIG      -0.073600
     30 C30          2.6150    -1.7000    12.0670 c          1 XIG       1.005200
     31 O31          3.1620    -1.7250    13.2980 o          1 XIG      -0.909800
     32 O32          2.0930    -2.6990    11.6150 o          1 XIG      -0.909800
     33 C33          1.4570     0.0930    10.7670 ca         1 XIG      -0.107600
     34 C34          1.4920     1.2640    10.0130 ca         1 XIG      -0.058000
     35 C35          2.7070     1.8930     9.7590 ca         1 XIG      -0.142600
     36 C36          2.7430     3.1400     8.9630 c          1 XIG       0.993200
     37 O37          1.5920     3.7310     8.5860 o          1 XIG      -0.917800
     38 O38          3.8080     3.6290     8.6500 o          1 XIG      -0.917800
     39 C39          0.1640    -0.5740    11.0400 c          1 XIG       0.966200
     40 O40          0.1190    -1.5230    11.7960 o          1 XIG      -0.892300
     41 O41         -0.9620    -0.1270    10.4510 o          1 XIG      -0.892300
     42 C42          3.8540    -0.0090     7.3980 ca         1 XIG      -0.081500
     43 C43          3.2220    -0.0040     6.1710 ca         1 XIG      -0.095500
     44 H11          7.0730     0.0070     6.3680 ha         1 XIG       0.132000
     45 H4           0.2080    -0.0110     2.3160 ha         1 XIG       0.103500
     46 H5           1.3200    -0.0140     4.5120 ha         1 XIG       0.124000
     47 H7           5.1440     0.0060     2.5640 ha         1 XIG       0.124000
     48 H8           4.0200     0.0050     0.3720 ha         1 XIG       0.103500
     49 H10          5.9630     0.0090     4.1700 ha         1 XIG       0.102500
     50 H1          -0.3610    -0.8870     0.5070 h1         1 XIG      -0.008967
     51 H1A         -0.3610     0.8820     0.5140 h1         1 XIG      -0.008967
     52 H1B         -0.3610     0.0040    -1.0210 h1         1 XIG      -0.008967
     53 H15          7.9760     1.4370     8.2540 h1         1 XIG       0.008700
     54 H20          9.9730     4.7710    11.6790 ha         1 XIG       0.082000
     55 H21         10.0960     3.0270    13.4090 ha         1 XIG       0.078000
     56 H22          8.9670     0.8610    13.0530 ha         1 XIG       0.094000
     57 H23          7.7220     0.4570    10.9690 ha         1 XIG       0.121000
     58 H28          4.7800    -0.2170    11.4460 ha         1 XIG       0.092000
     59 H13          6.8750    -0.5100     8.7280 h1         1 XIG       0.040700
     60 H13A         5.2990    -0.5190     9.5320 h1         1 XIG       0.040700
     61 H34          0.5720     1.6880     9.6300 ha         1 XIG       0.149000
     62 H42          3.2670    -0.0120     8.3080 ha         1 XIG       0.132000
     63 H43          2.1400    -0.0070     6.1180 ha         1 XIG       0.102500
     64 H16          6.3070     3.9300     8.7020 hc         1 XIG       0.077700
     65 H16A         6.6240     3.1070     7.1620 hc         1 XIG       0.077700
     66 H17          8.1170     5.0090     7.3020 hc         1 XIG      -0.004300
     67 H17A         9.0980     3.5260     7.5840 hc         1 XIG      -0.004300
     68 H18          9.7250     5.1370     9.2450 hc         1 XIG       0.012200
     69 H18A         8.0030     5.4430     9.6500 hc         1 XIG       0.012200
@<TRIPOS>BOND
     1     1     2 1   
     2     1    50 1   
     3     1    51 1   
     4     1    52 1   
     5     2     3 1   
     6     3     4 ar  
     7     3     8 ar  
     8     4     5 ar  
     9     4    45 1   
    10     5     6 ar  
    11     5    46 1   
    12     6     7 ar  
    13     6     9 1   
    14     7     8 ar  
    15     7    47 1   
    16     8    48 1   
    17     9    10 ar  
    18     9    43 ar  
    19    10    11 ar  
    20    10    49 1   
    21    11    12 ar  
    22    11    44 1   
    23    12    13 1   
    24    12    42 ar  
    25    13    14 1   
    26    13    59 1   
    27    13    60 1   
    28    14    15 1   
    29    14    25 1   
    30    15    16 1   
    31    15    24 1   
    32    15    53 1   
    33    16    17 1   
    34    16    64 1   
    35    16    65 1   
    36    17    18 1   
    37    17    66 1   
    38    17    67 1   
    39    18    19 1   
    40    18    68 1   
    41    18    69 1   
    42    19    20 ar  
    43    19    24 ar  
    44    20    21 ar  
    45    20    54 1   
    46    21    22 ar  
    47    21    55 1   
    48    22    23 ar  
    49    22    56 1   
    50    23    24 ar  
    51    23    57 1   
    52    25    26 2   
    53    25    27 1   
    54    27    28 ar  
    55    27    35 ar  
    56    28    29 ar  
    57    28    58 1   
    58    29    30 1   
    59    29    33 ar  
    60    30    31 1   
    61    30    32 1   
    62    33    34 ar  
    63    33    39 1   
    64    34    35 ar  
    65    34    61 1   
    66    35    36 1   
    67    36    37 1   
    68    36    38 1   
    69    39    40 1   
    70    39    41 1   
    71    42    43 ar  
    72    42    62 1   
    73    43    63 1   
@<TRIPOS>SUBSTRUCTURE
     1 XIG         1 TEMP              0 ****  ****    0 ROOT
