@<TRIPOS>MOLECULE
XIH
   53    55     1     0     0
SMALL
bcc


@<TRIPOS>ATOM
      1 C5          0.1650    0.1160   -0.3050 c2        1 XIH     -0.221000
      2 C6          1.5620   -0.2090   -0.2530 c2        1 XIH      0.096000
      3 C8          0.7650   -0.3940    1.7850 c2        1 XIH      0.031000
      4 C10         0.4510   -2.0820    3.4860 c3        1 XIH     -0.084000
      5 C13         1.6010   -0.3890    5.4100 c2        1 XIH      0.233000
      6 C15         1.6540   -0.0380    3.9940 c3        1 XIH     -0.135000
      7 C20        -2.8650    3.8480    0.9080 ca        1 XIH     -0.092000
      8 C21        -2.7840    4.3850    2.1920 ca        1 XIH     -0.114000
      9 C22        -2.3140    3.6010    3.2430 ca        1 XIH     -0.092000
     10 C24        -1.4350    1.5290    4.1220 c1        1 XIH     -0.026000
     11 C28         1.7180    0.1180   -2.6340 c2        1 XIH      0.404000
     12 N           0.3260    0.3960   -2.6900 n         1 XIH     -0.305000
     13 C3         -0.5160    0.3850   -1.5660 c2        1 XIH      0.401000
     14 O          -1.7420    0.5770   -1.6680 o         1 XIH     -0.354000
     15 N7          1.9310   -0.5330    1.0550 n2        1 XIH     -0.180000
     16 N9          0.6200   -0.6610    3.1840 nh        1 XIH     -0.190000
     17 C11         0.0150   -2.2950    4.9340 c3        1 XIH     -0.169000
     18 C12         0.8170   -1.4820    5.9320 c3        1 XIH     -0.239000
     19 N16        -0.3290    0.0210    0.9970 na        1 XIH     -0.064000
     20 C18        -2.0040    1.7260    1.7190 ca        1 XIH     -0.070000
     21 C19        -2.4810    2.5280    0.6760 ca        1 XIH     -0.109000
     22 C23        -1.9190    2.2730    3.0110 ca        1 XIH     -0.028000
     23 N25        -1.0200    0.9700    5.0550 n1        1 XIH     -0.141000
     24 N26         2.3440   -0.1840   -1.3950 n         1 XIH     -0.236000
     25 C27         3.7390   -0.5380   -1.3440 c3        1 XIH     -0.068000
     26 O29         2.4000    0.1450   -3.6770 o         1 XIH     -0.328000
     27 H101       -0.3500   -2.4860    2.8030 h1        1 XIH      0.115500
     28 H102        1.3970   -2.6630    3.2840 h1        1 XIH      0.115500
     29 H13         2.2430    0.2250    6.1250 ha        1 XIH      0.248000
     30 H151        2.7230   -0.2850    3.6550 h1        1 XIH      0.198000
     31 H152        1.5670    1.0920    3.8750 h1        1 XIH      0.198000
     32 H171       -2.3610   -0.0620    0.5830 h1        1 XIH      0.137000
     33 H172       -1.8920   -0.3400    2.3400 h1        1 XIH      0.137000
     34 H20        -3.2390    4.4630    0.0740 ha        1 XIH      0.158000
     35 H21        -3.0940    5.4250    2.3800 ha        1 XIH      0.156000
     36 H22        -2.2570    4.0200    4.2600 ha        1 XIH      0.149000
     37 H1          0.3160    1.5290   -4.4630 h1        1 XIH      0.111333
     38 H2         -0.0680   -0.2440   -4.6580 h1        1 XIH      0.111333
     39 H3         -1.3170    0.8810   -3.9190 h1        1 XIH      0.111333
     40 H111       -1.0710   -2.0270    5.0360 hc        1 XIH      0.127000
     41 H112        0.1140   -3.3880    5.1700 hc        1 XIH      0.127000
     42 H121        0.1060   -1.0200    6.7000 hc        1 XIH      0.200500
     43 H122        1.4910   -2.1500    6.5550 hc        1 XIH      0.200500
     44 H141        2.7200    1.8680    7.7610 hn        1 XIH      0.158667
     45 H142        3.7290    0.6100    7.9680 hn        1 XIH      0.158667
     46 H19        -2.5640    2.1060   -0.3430 ha        1 XIH      0.181000
     47 H271        4.1920   -0.4330   -2.3670 h1        1 XIH      0.106667
     48 H272        4.2690    0.1450   -0.6280 h1        1 XIH      0.106667
     49 H273        3.8490   -1.5990   -0.9930 h1        1 XIH      0.106667
     50 C17        -1.6830    0.2840    1.4240 c3        1 XIH      0.010000
     51 C          -0.2210    0.6560   -4.0050 c3        1 XIH     -0.080000
     52 H143        4.0140    1.6950    6.7930 hn        1 XIH      0.158667
     53 N14         3.2960    1.2020    7.2860 n3        1 XIH     -0.427000
@<TRIPOS>BOND
     1    1    2 1
     2    1   13 1
     3    1   19 1
     4    2   15 1
     5    2   24 1
     6    3   15 1
     7    3   16 1
     8    3   19 1
     9    4   16 1
    10    4   17 1
    11    4   27 1
    12    4   28 1
    13    5    6 1
    14    5   18 1
    15    5   29 1
    16    6   16 1
    17    6   30 1
    18    6   31 1
    19    7    8 1
    20    7   21 1
    21    7   34 1
    22    8    9 1
    23    8   35 1
    24    9   22 1
    25    9   36 1
    26   10   22 1
    27   10   23 1
    28   11   12 1
    29   11   24 1
    30   11   26 1
    31   12   13 1
    32   12   51 1
    33   13   14 1
    34   17   18 1
    35   17   40 1
    36   17   41 1
    37   18   42 1
    38   18   43 1
    39   19   50 1
    40   20   21 1
    41   20   22 1
    42   20   50 1
    43   21   46 1
    44   24   25 1
    45   25   47 1
    46   25   48 1
    47   25   49 1
    48   32   50 1
    49   33   50 1
    50   37   51 1
    51   38   51 1
    52   39   51 1
    53   44   53 1
    54   45   53 1
    55   52   53 1
@<TRIPOS>SUBSTRUCTURE
     1 XIH         1 TEMP              0 ****  ****    0 ROOT
