@<TRIPOS>MOLECULE
molecule
   35    36     1     0     0
SMALL
bcc


@<TRIPOS>ATOM
      1 C1           0.0000     0.0000     0.0000 c3         1 XIL       0.320900
      2 C2           1.5310     0.0000     0.0000 c3         1 XIL       0.120100
      3 O2           2.0090    -1.1650    -0.6740 oh         1 XIL      -0.595800
      4 C3           2.0330     0.0000     1.4480 c3         1 XIL       0.124100
      5 O3           3.4540     0.1490     1.4640 oh         1 XIL      -0.599800
      6 C4           1.3780     1.1680     2.1930 c3         1 XIL       0.096100
      7 O4           1.7130     1.0970     3.5810 oh         1 XIL      -0.600800
      8 C5          -0.1400     1.0800     2.0280 c3         1 XIL       0.111400
      9 O5          -0.4830     1.1750     0.6470 os         1 XIL      -0.407600
     10 N1'         -4.4050    -1.3080    -1.9670 ns         1 XIL      -0.574900
     11 C2'         -3.9830    -0.2080    -2.5890 c          1 XIL       0.680500
     12 C3'         -2.5770     0.3130    -2.4920 c3         1 XIL       0.090100
     13 O2'         -4.7770     0.4080    -3.2690 o          1 XIL      -0.645500
     14 O3'         -2.6070     1.7340    -2.3390 oh         1 XIL      -0.570800
     15 C4'         -1.8720    -0.3130    -1.2880 c3         1 XIL       0.128100
     16 O4'         -0.4720    -0.0290    -1.3470 os         1 XIL      -0.367600
     17 C5'         -2.0920    -1.8300    -1.3310 c3         1 XIL      -0.124400
     18 C6'         -3.5730    -2.1170    -1.0830 c3         1 XIL       0.103000
     19 H1          -0.3580    -0.8740     0.5310 h2         1 XIL       0.039700
     20 H2           1.8900     0.8880    -0.5050 h1         1 XIL       0.070700
     21 HO2          2.7550    -0.9380    -1.2040 ho         1 XIL       0.418000
     22 H3           1.7560    -0.9320     1.9250 h1         1 XIL       0.057700
     23 HO3          3.8380    -0.5500     1.9660 ho         1 XIL       0.415000
     24 H4           1.7320     2.1040     1.7780 h1         1 XIL       0.062700
     25 HO4          1.9460     1.9560     3.8930 ho         1 XIL       0.412000
     26 H51         -0.6080     1.8930     2.5700 h1         1 XIL       0.061200
     27 H52         -0.4890     0.1320     2.4190 h1         1 XIL       0.061200
     28 H3'         -2.0380     0.0560    -3.3950 h1         1 XIL       0.069700
     29 HO'         -2.5970     2.1410    -3.1890 ho         1 XIL       0.417000
     30 H4'         -2.2910     0.0890    -0.3730 h1         1 XIL       0.078700
     31 H5'1        -1.4970    -2.3050    -0.5600 hc         1 XIL       0.065700
     32 H5'2        -1.8070    -2.2100    -2.3040 hc         1 XIL       0.065700
     33 H6'1        -3.7690    -3.1660    -1.2710 h1         1 XIL       0.045200
     34 H6'2        -3.8140    -1.8820    -0.0540 h1         1 XIL       0.045200
     35 HN'         -5.3510    -1.5980    -2.1160 hn         1 XIL       0.328500
@<TRIPOS>BOND
     1     1     2 1
     2     1     9 1
     3     1    16 1
     4     1    19 1
     5     2     3 1
     6     2     4 1
     7     2    20 1
     8     3    21 1
     9     4     5 1
    10     4     6 1
    11     4    22 1
    12     5    23 1
    13     6     7 1
    14     6     8 1
    15     6    24 1
    16     7    25 1
    17     8     9 1
    18     8    26 1
    19     8    27 1
    20    10    11 1
    21    10    18 1
    22    10    35 1
    23    11    12 1
    24    11    13 2
    25    12    14 1
    26    12    15 1
    27    12    28 1
    28    14    29 1
    29    15    16 1
    30    15    17 1
    31    15    30 1
    32    17    18 1
    33    17    31 1
    34    17    32 1
    35    18    33 1
    36    18    34 1
@<TRIPOS>SUBSTRUCTURE
     1 XIL         1 TEMP              0 ****  ****    0 ROOT
