@<TRIPOS>MOLECULE
XIM
   22    23     1     0     0
SMALL
bcc


@<TRIPOS>ATOM
      1 C1          0.0380   -0.0310   -0.0010 cc        1 XIM      0.344800
      2 C2          1.5350    0.0420    0.0720 c3        1 XIM      0.101800
      3 C3          2.0040    0.1080    1.5400 c3        1 XIM      0.104100
      4 C4          1.1990    1.1570    2.3250 c3        1 XIM      0.141100
      5 C5         -0.3000    0.7860    2.3590 c3        1 XIM      0.034300
      6 N1         -0.7780    0.3580    1.0790 na        1 XIM     -0.187900
      7 C17        -2.1000    0.2030    0.6650 cc        1 XIM     -0.241600
      8 C18        -2.0390   -0.2760   -0.6590 cd        1 XIM      0.295200
      9 N21        -0.7160   -0.4150   -1.0630 nd        1 XIM     -0.664000
     10 O2          2.1670   -1.1020   -0.4740 oh        1 XIM     -0.602800
     11 O3          3.3580    0.5230    1.6030 oh        1 XIM     -0.609800
     12 O4          1.6090    1.1940    3.6800 oh        1 XIM     -0.596800
     13 H2          1.8820    0.9600   -0.4850 h1        1 XIM      0.069700
     14 H3          1.8950   -0.9040    2.0190 h1        1 XIM      0.073700
     15 H4          1.3470    2.1710    1.8580 h1        1 XIM      0.061700
     16 H51        -0.4500   -0.0410    3.1140 h1        1 XIM      0.075700
     17 H52        -0.8890    1.6830    2.7000 h1        1 XIM      0.075700
     18 H17        -2.9450    0.4350    1.3100 h4        1 XIM      0.181000
     19 H18        -2.8650   -0.5210   -1.3250 h4        1 XIM      0.045100
     20 HO2         1.7880   -1.2620   -1.3480 ho        1 XIM      0.436000
     21 HO3         3.8670   -0.1180    1.0880 ho        1 XIM      0.431000
     22 HO4         2.5710    1.3010    3.6720 ho        1 XIM      0.432000
@<TRIPOS>BOND
     1    1    2 1   
     2    1    6 1   
     3    1    9 2   
     4    2    3 1   
     5    2   10 1   
     6    2   13 1   
     7    3    4 1   
     8    3   11 1   
     9    3   14 1   
    10    4    5 1   
    11    4   12 1   
    12    4   15 1   
    13    5    6 1   
    14    5   16 1   
    15    5   17 1   
    16    6    7 1   
    17    7    8 2   
    18    7   18 1   
    19    8    9 1   
    20    8   19 1   
    21   10   20 1   
    22   11   21 1   
    23   12   22 1   
@<TRIPOS>SUBSTRUCTURE
     1 XIM         1 TEMP              0 ****  ****    0 ROOT
