@<TRIPOS>MOLECULE
molecule
   22    23     1     0     0
SMALL
bcc


@<TRIPOS>ATOM
      1 C1           0.0000     0.0000     0.0000 cc         1 XIM       0.372800
      2 C2           1.5110     0.0000     0.0000 c3         1 XIM       0.130800
      3 C3           1.9900     0.0000     1.4570 c3         1 XIM       0.136100
      4 C4           1.2440     1.0890     2.2340 c3         1 XIM       0.124100
      5 C5          -0.2270     0.6870     2.3930 c3         1 XIM       0.020300
      6 N1          -0.7560     0.3080     1.0790 na         1 XIM      -0.186900
      7 C17         -2.0640     0.1990     0.7060 cc         1 XIM      -0.267600
      8 C18         -2.0650    -0.1720    -0.5900 cd         1 XIM       0.311200
      9 N21         -0.7900    -0.2910    -0.9920 nd         1 XIM      -0.676000
     10 O2           1.9930    -1.1690    -0.6660 oh         1 XIM      -0.580800
     11 O3           3.3950     0.2630     1.4970 oh         1 XIM      -0.593800
     12 O4           1.8360     1.2440     3.5240 oh         1 XIM      -0.586800
     13 H2           1.8750     0.8880    -0.5020 h1         1 XIM       0.066700
     14 H3           1.7850    -0.9660     1.9030 h1         1 XIM       0.066700
     15 H4           1.3040     2.0230     1.6890 h1         1 XIM       0.053700
     16 H51         -0.2740    -0.1800     3.0410 h1         1 XIM       0.072700
     17 H52         -0.7790     1.5500     2.7450 h1         1 XIM       0.072700
     18 H17         -2.9320     0.3800     1.3290 h4         1 XIM       0.175000
     19 H18         -2.9430    -0.3450    -1.2010 h4         1 XIM       0.042100
     20 HO2          2.3450    -0.9290    -1.5070 ho         1 XIM       0.417000
     21 HO3          3.8480    -0.4980     1.8200 ho         1 XIM       0.418000
     22 HO4          1.8750     2.1610     3.7440 ho         1 XIM       0.412000
@<TRIPOS>BOND
     1     1     2 1
     2     1     6 1
     3     1     9 2
     4     2     3 1
     5     2    10 1
     6     2    13 1
     7     3     4 1
     8     3    11 1
     9     3    14 1
    10     4     5 1
    11     4    12 1
    12     4    15 1
    13     5     6 1
    14     5    16 1
    15     5    17 1
    16     6     7 1
    17     7     8 2
    18     7    18 1
    19     8     9 1
    20     8    19 1
    21    10    20 1
    22    11    21 1
    23    12    22 1
@<TRIPOS>SUBSTRUCTURE
     1 XIM         1 TEMP              0 ****  ****    0 ROOT
