@<TRIPOS>MOLECULE
molecule
   73    77     1     0     0
SMALL
bcc


@<TRIPOS>ATOM
      1 C1           0.0000     0.0000     0.0000 cc         1 XIN      -0.222400
      2 C2           1.4750     0.0000     0.0000 ca         1 XIN      -0.067800
      3 C3          -0.8400    -0.0000    -1.1100 cf         1 XIN       0.308800
      4 C4          -0.3860    -0.0070     1.3660 c          1 XIN       0.720700
      5 C5           1.8640     0.0000     1.3500 ca         1 XIN       0.034600
      6 C6           2.4340     0.0010    -1.0120 ca         1 XIN      -0.110000
      7 C7          -0.2730     0.1520    -2.4630 ca         1 XIN      -0.103800
      8 C11          3.2120     0.0000     1.6670 ca         1 XIN      -0.094000
      9 C12          3.7620     0.0020    -0.6950 ca         1 XIN      -0.106000
     10 C15         -3.0610     0.8480    -1.4160 ca         1 XIN       0.179600
     11 C16          4.1640     0.0010     0.6460 ca         1 XIN      -0.109600
     12 C17          1.1010     1.3600    -4.0200 ca         1 XIN      -0.135000
     13 C18         -0.0540    -0.6230    -4.7270 ca         1 XIN      -0.135000
     14 C19         -4.4340     0.6390    -1.3840 ca         1 XIN      -0.175500
     15 C21          5.6000     0.0010     0.9820 c          1 XIN       0.649700
     16 C23         -5.2920     1.6190    -1.8430 ca         1 XIN      -0.088000
     17 C24         -3.4080     3.0210    -2.3700 ca         1 XIN      -0.088000
     18 O25          6.5220     0.0010    -0.0010 os         1 XIN      -0.428900
     19 O26          5.9520     0.0010     2.1450 o          1 XIN      -0.551000
     20 C27         -4.7820     2.8120    -2.3370 ca         1 XIN       0.017600
     21 C30         -6.4730     3.5490    -3.8410 c          1 XIN       0.653100
     22 C31         -5.6700     5.1230    -2.1640 c3         1 XIN       0.095300
     23 C32         -7.3200     4.6530    -4.4210 c3         1 XIN      -0.015200
     24 C35         -9.1580     4.0480    -6.6860 c3         1 XIN       0.096800
     25 C36         -7.1760     2.7550    -7.1930 c3         1 XIN       0.096800
     26 C37         -9.9270     3.2980    -7.7760 c3         1 XIN       0.158800
     27 C38         -7.9450     2.0050    -8.2840 c3         1 XIN       0.158800
     28 C40         -9.7050     2.2210    -9.9330 c3         1 XIN       0.154100
     29 O33         -6.5310     2.4310    -4.3060 o          1 XIN      -0.575100
     30 N34         -8.1110     3.1740    -6.1400 n3         1 XIN      -0.527600
     31 N39         -8.9920     2.8790    -8.8300 n3         1 XIN      -0.739600
     32 N29         -5.6520     3.8060    -2.8040 n          1 XIN      -0.415000
     33 C20         -2.5510     2.0420    -1.9100 ca         1 XIN      -0.175500
     34 N8          -2.1910    -0.1420    -0.9460 nu         1 XIN      -0.667400
     35 C14         -0.5870    -0.7720    -3.4640 ca         1 XIN      -0.094500
     36 C22          0.7900     0.4390    -5.0040 ca         1 XIN      -0.109000
     37 C13          0.5750     1.2240    -2.7520 ca         1 XIN      -0.094500
     38 C28          7.9170     0.0020     0.4040 c3         1 XIN       0.140700
     39 N9           0.7170    -0.0100     2.1330 ns         1 XIN      -0.452100
     40 O10         -1.5340    -0.0090     1.7780 o          1 XIN      -0.623500
     41 H6           2.1250     0.0020    -2.0510 ha         1 XIN       0.153000
     42 H11          3.5260    -0.0010     2.7040 ha         1 XIN       0.158000
     43 H12          4.5060     0.0020    -1.4820 ha         1 XIN       0.150000
     44 H17          1.7610     2.1900    -4.2460 ha         1 XIN       0.137000
     45 H18         -0.2950    -1.3390    -5.5030 ha         1 XIN       0.137000
     46 H19         -4.8310    -0.2920    -0.9990 ha         1 XIN       0.138000
     47 H23         -6.3630     1.4560    -1.8180 ha         1 XIN       0.141000
     48 H24         -3.0110     3.9520    -2.7550 ha         1 XIN       0.141000
     49 H31         -6.6840     5.3720    -1.8780 h1         1 XIN       0.039367
     50 H31A        -5.2970     5.8670    -2.8580 h1         1 XIN       0.039367
     51 H31B        -5.0400     5.1050    -1.2820 h1         1 XIN       0.039367
     52 H32         -6.6800     5.4470    -4.7850 h1         1 XIN       0.059200
     53 H32A        -7.9800     5.0430    -3.6560 h1         1 XIN       0.059200
     54 H35         -9.8410     4.3300    -5.8930 h1         1 XIN       0.062450
     55 H35A        -8.7030     4.9340    -7.1110 h1         1 XIN       0.062450
     56 H36         -6.4240     2.1010    -6.7680 h1         1 XIN       0.062450
     57 H36A        -6.7020     3.6290    -7.6220 h1         1 XIN       0.062450
     58 H37        -10.6790     3.9510    -8.2010 h1         1 XIN       0.044700
     59 H37A       -10.4000     2.4230    -7.3460 h1         1 XIN       0.044700
     60 H38         -8.4010     1.1190    -7.8590 h1         1 XIN       0.044700
     61 H38A        -7.2630     1.7230    -9.0760 h1         1 XIN       0.044700
     62 H40        -10.4390     2.9020   -10.3470 h1         1 XIN       0.033033
     63 H40A        -8.9970     1.9410   -10.7040 h1         1 XIN       0.033033
     64 H40B       -10.2040     1.3340    -9.5630 h1         1 XIN       0.033033
     65 H20         -1.4800     2.2040    -1.9350 ha         1 XIN       0.138000
     66 HN8         -2.5600    -0.9810    -0.5440 hn         1 XIN       0.467800
     67 H14         -1.2470    -1.6030    -3.2480 ha         1 XIN       0.142500
     68 H22          1.2060     0.5510    -5.9980 ha         1 XIN       0.134000
     69 H13          0.8200     1.9460    -1.9830 ha         1 XIN       0.142500
     70 H28          8.1200    -0.8810     0.9980 h1         1 XIN       0.049700
     71 H28A         8.5480    -0.0020    -0.4760 h1         1 XIN       0.049700
     72 H28B         8.1220     0.8880     0.9920 h1         1 XIN       0.049700
     73 HN9          0.7130    -0.0150     3.1330 hn         1 XIN       0.342500
@<TRIPOS>BOND
     1     1     2 1
     2     1     3 2
     3     1     4 1
     4     2     5 ar
     5     2     6 ar
     6     3     7 1
     7     3    34 1
     8     4    39 1
     9     4    40 2
    10     5     8 ar
    11     5    39 1
    12     6     9 ar
    13     7    35 ar
    14     7    37 ar
    15     8    11 ar
    16     9    11 ar
    17    10    14 ar
    18    10    33 ar
    19    10    34 1
    20    11    15 1
    21    12    36 ar
    22    12    37 ar
    23    13    35 ar
    24    13    36 ar
    25    14    16 ar
    26    15    18 1
    27    15    19 2
    28    16    20 ar
    29    17    20 ar
    30    17    33 ar
    31    18    38 1
    32    20    32 1
    33    21    23 1
    34    21    29 2
    35    21    32 1
    36    22    32 1
    37    23    30 1
    38    24    26 1
    39    24    30 1
    40    25    27 1
    41    25    30 1
    42    26    31 1
    43    27    31 1
    44    28    31 1
    45     6    41 1
    46     8    42 1
    47     9    43 1
    48    12    44 1
    49    13    45 1
    50    14    46 1
    51    16    47 1
    52    17    48 1
    53    22    49 1
    54    22    50 1
    55    22    51 1
    56    23    52 1
    57    23    53 1
    58    24    54 1
    59    24    55 1
    60    25    56 1
    61    25    57 1
    62    26    58 1
    63    26    59 1
    64    27    60 1
    65    27    61 1
    66    28    62 1
    67    28    63 1
    68    28    64 1
    69    33    65 1
    70    34    66 1
    71    35    67 1
    72    36    68 1
    73    37    69 1
    74    38    70 1
    75    38    71 1
    76    38    72 1
    77    39    73 1
@<TRIPOS>SUBSTRUCTURE
     1 XIN         1 TEMP              0 ****  ****    0 ROOT
