@<TRIPOS>MOLECULE
XIN
   73    77     1     0     0
SMALL
bcc


@<TRIPOS>ATOM
      1 C1          0.2740    0.2990    0.3250 cc        1 XIN     -0.288400
      2 C2          1.6920   -0.0320    0.2330 ca        1 XIN     -0.013800
      3 C3         -0.5300    0.9850   -0.5600 cf        1 XIN      0.326800
      4 C4         -0.1960   -0.2800    1.6210 c         1 XIN      0.720700
      5 C5          2.0410   -0.7670    1.4310 ca        1 XIN      0.026600
      6 C6          2.6680    0.2070   -0.7180 ca        1 XIN     -0.125000
      7 C7          0.0450    1.5000   -1.8270 ca        1 XIN     -0.096800
      8 C11         3.3320   -1.2290    1.6460 ca        1 XIN     -0.112000
      9 C12         3.9700   -0.2610   -0.5030 ca        1 XIN     -0.090000
     10 C15        -2.7920    1.8170   -1.1460 ca        1 XIN      0.112600
     11 C16         4.2980   -0.9640    0.6570 ca        1 XIN     -0.119600
     12 C17         1.3230    3.1660   -3.0260 ca        1 XIN     -0.133500
     13 C18         0.4420    1.2440   -4.1980 ca        1 XIN     -0.133500
     14 C19        -4.0460    1.2000   -1.3530 ca        1 XIN     -0.129500
     15 C21         5.6620   -1.4570    0.8910 c         1 XIN      0.646700
     16 C23        -5.0170    1.8080   -2.1350 ca        1 XIN     -0.128500
     17 C24        -3.5160    3.6650   -2.5480 ca        1 XIN     -0.128500
     18 O25         6.5520   -1.1620   -0.1110 os        1 XIN     -0.439900
     19 O26         6.0880   -2.0900    1.8630 o         1 XIN     -0.548000
     20 C27        -4.7730    3.0560   -2.7500 ca        1 XIN      0.054600
     21 C30        -6.5250    2.9740   -4.4690 c         1 XIN      0.664100
     22 C31        -5.8540    5.1270   -3.4650 c3        1 XIN      0.079300
     23 C32        -7.5020    3.7980   -5.3190 c3        1 XIN      0.111800
     24 C35        -9.4240    3.7830   -6.7600 c3        1 XIN      0.164300
     25 C36        -7.5230    2.3810   -7.2930 c3        1 XIN      0.164300
     26 C37       -10.2860    2.9840   -7.7550 c3        1 XIN      0.168800
     27 C38        -8.3900    1.5900   -8.2900 c3        1 XIN      0.168800
     28 C40       -10.3200    1.6110   -9.7360 c3        1 XIN      0.157100
     29 O33        -6.3920    1.7440   -4.5720 o         1 XIN     -0.569100
     30 N34        -8.3040    3.0090   -6.2370 n3        1 XIN     -0.716600
     31 N39        -9.5030    2.3680   -8.8160 n3        1 XIN     -0.734600
     32 N29        -5.7680    3.6940   -3.5320 n         1 XIN     -0.399000
     33 C20        -2.5500    3.0640   -1.7530 ca        1 XIN     -0.129500
     34 N8         -1.8570    1.1990   -0.2900 nh        1 XIN     -0.624400
     35 C14        -0.1180    0.7720   -3.0110 ca        1 XIN     -0.101000
     36 C22         1.1610    2.4390   -4.2070 ca        1 XIN     -0.115000
     37 C13         0.7660    2.7010   -1.8360 ca        1 XIN     -0.101000
     38 C28         7.8910   -1.6240    0.0740 c3        1 XIN      0.128700
     39 N9          0.9050   -0.8990    2.2470 n         1 XIN     -0.469100
     40 O10        -1.3360   -0.2630    2.1200 o         1 XIN     -0.659500
     41 H6          2.4320    0.7590   -1.6400 ha        1 XIN      0.147000
     42 H11         3.6140   -1.7880    2.5510 ha        1 XIN      0.161000
     43 H12         4.7480   -0.0710   -1.2600 ha        1 XIN      0.152000
     44 H17         1.8920    4.1070   -3.0320 ha        1 XIN      0.140000
     45 H18         0.3130    0.6710   -5.1280 ha        1 XIN      0.140000
     46 H19        -4.2710    0.2260   -0.8890 ha        1 XIN      0.146000
     47 H23        -5.9790    1.2930   -2.2960 ha        1 XIN      0.150500
     48 H24        -3.2810    4.6320   -3.0220 ha        1 XIN      0.150500
     49 H31        -5.3290    5.5050   -2.5470 h1        1 XIN      0.043700
     50 H31A       -6.9290    5.4470   -3.4050 h1        1 XIN      0.043700
     51 H31B       -5.3850    5.6020   -4.3700 h1        1 XIN      0.043700
     52 H32        -6.8990    4.5910   -5.8570 h1        1 XIN      0.054700
     53 H32A       -8.2140    4.3140   -4.6110 h1        1 XIN      0.054700
     54 H35        -9.0750    4.7320   -7.2640 h1        1 XIN      0.042950
     55 H35A      -10.0820    4.0720   -5.8940 h1        1 XIN      0.042950
     56 H36        -6.9170    3.1430   -7.8660 h1        1 XIN      0.042950
     57 H36A       -6.8100    1.6560   -6.8060 h1        1 XIN      0.042950
     58 H37       -10.8850    2.2190   -7.1790 h1        1 XIN      0.039950
     59 H37A      -11.0100    3.7020   -8.2330 h1        1 XIN      0.039950
     60 H38        -8.7430    0.6430   -7.7880 h1        1 XIN      0.039950
     61 H38A       -7.7340    1.2990   -9.1570 h1        1 XIN      0.039950
     62 H40        -9.6700    1.2350  -10.5690 h1        1 XIN      0.032700
     63 H40A      -11.1030    2.2890  -10.1660 h1        1 XIN      0.032700
     64 H40B      -10.8330    0.7300   -9.2580 h1        1 XIN      0.032700
     65 H20        -1.5820    3.5710   -1.6100 ha        1 XIN      0.146000
     66 HN8        -2.2450    0.7490    0.5210 hn        1 XIN      0.480800
     67 H14        -0.6860   -0.1710   -3.0060 ha        1 XIN      0.146500
     68 H22         1.6020    2.8090   -5.1440 ha        1 XIN      0.137000
     69 H13         0.8990    3.2690   -0.9020 ha        1 XIN      0.146500
     70 H28         8.4180   -1.2750   -0.8480 h1        1 XIN      0.050033
     71 H28A        8.3280   -1.1670    0.9940 h1        1 XIN      0.050033
     72 H28B        7.9020   -2.7370    0.1570 h1        1 XIN      0.050033
     73 HN9         0.8810   -1.3730    3.1090 hn        1 XIN      0.342500
@<TRIPOS>BOND
     1    1    2 1   
     2    1    3 2   
     3    1    4 1   
     4    2    5 ar  
     5    2    6 ar  
     6    3    7 1   
     7    3   34 1   
     8    4   39 1   
     9    4   40 2   
    10    5    8 ar  
    11    5   39 1   
    12    6    9 ar  
    13    6   41 1   
    14    7   35 ar  
    15    7   37 ar  
    16    8   11 ar  
    17    8   42 1   
    18    9   11 ar  
    19    9   43 1   
    20   10   14 ar  
    21   10   33 ar  
    22   10   34 1   
    23   11   15 1   
    24   12   36 ar  
    25   12   37 ar  
    26   12   44 1   
    27   13   35 ar  
    28   13   36 ar  
    29   13   45 1   
    30   14   16 ar  
    31   14   46 1   
    32   15   18 1   
    33   15   19 2   
    34   16   20 ar  
    35   16   47 1   
    36   17   20 ar  
    37   17   33 ar  
    38   17   48 1   
    39   18   38 1   
    40   20   32 1   
    41   21   23 1   
    42   21   29 2   
    43   21   32 1   
    44   22   32 1   
    45   22   49 1   
    46   22   50 1   
    47   22   51 1   
    48   23   30 1   
    49   23   52 1   
    50   23   53 1   
    51   24   26 1   
    52   24   30 1   
    53   24   54 1   
    54   24   55 1   
    55   25   27 1   
    56   25   30 1   
    57   25   56 1   
    58   25   57 1   
    59   26   31 1   
    60   26   58 1   
    61   26   59 1   
    62   27   31 1   
    63   27   60 1   
    64   27   61 1   
    65   28   31 1   
    66   28   62 1   
    67   28   63 1   
    68   28   64 1   
    69   33   65 1   
    70   34   66 1   
    71   35   67 1   
    72   36   68 1   
    73   37   69 1   
    74   38   70 1   
    75   38   71 1   
    76   38   72 1   
    77   39   73 1   
@<TRIPOS>SUBSTRUCTURE
     1 XIN         1 TEMP              0 ****  ****    0 ROOT
