@<TRIPOS>MOLECULE
molecule
   12    12     1     0     0
SMALL
bcc


@<TRIPOS>ATOM
      1 N1           0.0000     0.0000     0.0000 nc         1 XIX      -0.612800
      2 N2           1.4050     0.0000     0.0000 na         1 XIX      -0.190400
      3 N4           3.0880    -0.0000     1.7580 nv         1 XIX      -1.054500
      4 C6          -0.3830     0.0000     1.2530 cd         1 XIX       0.840900
      5 N7           0.7000     0.0000     2.0380 nd         1 XIX      -0.807000
      6 N8          -1.7060     0.0000     1.6970 nv         1 XIX      -1.003500
      7 C2           1.7860     0.0000     1.2950 cc         1 XIX       0.712400
      8 H2           2.0040    -0.0000    -0.8010 hn         1 XIX       0.324700
      9 H41N         3.5560     0.8670     1.9380 hn         1 XIX       0.446800
     10 H42N         3.5560    -0.8670     1.9380 hn         1 XIX       0.446800
     11 H81N        -1.9060     0.0000     2.6770 hn         1 XIX       0.447800
     12 H82N        -2.4560     0.0000     1.0340 hn         1 XIX       0.447800
@<TRIPOS>BOND
     1     1     2 1
     2     1     4 2
     3     2     7 1
     4     3     7 1
     5     4     5 1
     6     4     6 1
     7     5     7 2
     8     2     8 1
     9     3     9 1
    10     3    10 1
    11     6    11 1
    12     6    12 1
@<TRIPOS>SUBSTRUCTURE
     1 XIX         1 TEMP              0 ****  ****    0 ROOT
