@<TRIPOS>MOLECULE
XIY
   19    20     1     0     0
SMALL
bcc


@<TRIPOS>ATOM
      1 NG         -0.0520   -0.0020   -0.0780 nc        1 XIY     -0.573100
      2 CD1         1.3000   -0.0000   -0.0220 cd        1 XIY      0.406800
      3 NE1         1.7930    0.0000    1.2990 na        1 XIY     -0.258300
      4 CE2         0.6800   -0.0010    2.1400 ca        1 XIY     -0.074200
      5 CZ2         0.5400   -0.0010    3.5340 ca        1 XIY     -0.133000
      6 CH2        -0.7490   -0.0030    4.0430 ca        1 XIY     -0.114000
      7 CZ3        -1.8790   -0.0040    3.2040 ca        1 XIY     -0.154000
      8 CE3        -1.7660   -0.0040    1.8230 ca        1 XIY     -0.070000
      9 CD2        -0.4800   -0.0020    1.2620 ca        1 XIY      0.066400
     10 C           2.1840    0.0010   -1.2360 c3        1 XIY      0.118100
     11 O           3.5440    0.0010   -0.8240 oh        1 XIY     -0.612800
     12 HE1         2.7450    0.0010    1.5560 hn        1 XIY      0.318700
     13 HC1         1.9680   -0.9180   -1.8480 h1        1 XIY      0.058200
     14 HC2         1.9680    0.9210   -1.8470 h1        1 XIY      0.058200
     15 HZ2         1.4170   -0.0000    4.1940 ha        1 XIY      0.135000
     16 HH2        -0.8970   -0.0030    5.1340 ha        1 XIY      0.131000
     17 HZ3        -2.8790   -0.0050    3.6640 ha        1 XIY      0.132000
     18 HE3        -2.6530   -0.0040    1.1750 ha        1 XIY      0.147000
     19 H           4.0690    0.0020   -1.6330 ho        1 XIY      0.418000
@<TRIPOS>BOND
     1    1    2 2
     2    1    9 1
     3    2    3 1
     4    2   10 1
     5    3    4 1
     6    3   12 1
     7    4    5 ar
     8    4    9 ar
     9    5    6 ar
    10    5   15 1
    11    6    7 ar
    12    6   16 1
    13    7    8 ar
    14    7   17 1
    15    8    9 ar
    16    8   18 1
    17   10   11 1
    18   10   13 1
    19   10   14 1
    20   11   19 1
@<TRIPOS>SUBSTRUCTURE
     1 XIY         1 TEMP              0 ****  ****    0 ROOT
