@<TRIPOS>MOLECULE
molecule
   17    17     1     0     0
SMALL
bcc


@<TRIPOS>ATOM
      1 C1           0.0000     0.0000     0.0000 c          1 XIZ       0.863800
      2 O1           1.2160     0.0000     0.0000 o          1 XIZ      -0.834800
      3 O2          -0.6750     0.0000     1.1680 o          1 XIZ      -0.834800
      4 C2          -0.7330     0.0070    -1.2690 ce         1 XIZ      -0.126200
      5 C3          -0.0600     0.0120    -2.4350 cf         1 XIZ      -0.190200
      6 C1'         -0.7970     0.0200    -3.7120 ca         1 XIZ       0.020200
      7 C2'         -0.1160     0.0260    -4.9370 ca         1 XIZ      -0.265800
      8 C3'         -0.8480     0.0320    -6.1070 ca         1 XIZ       0.406700
      9 C5'         -2.8460     0.0210    -4.9540 ca         1 XIZ       0.406700
     10 C6'         -2.1980     0.0140    -3.7350 ca         1 XIZ      -0.265800
     11 N4          -2.1660     0.0320    -6.0830 nb         1 XIZ      -0.731000
     12 HA          -1.8160     0.0090    -1.2680 ha         1 XIZ       0.105000
     13 H3           1.0240     0.0110    -2.4360 ha         1 XIZ       0.155000
     14 H2'          0.9670     0.0260    -4.9650 ha         1 XIZ       0.141500
     15 H6'         -2.7630     0.0050    -2.8110 ha         1 XIZ       0.141500
     16 H3'         -0.3310     0.0390    -7.0590 h4         1 XIZ       0.004600
     17 H5'         -3.9290     0.0190    -4.9820 h4         1 XIZ       0.004600
@<TRIPOS>BOND
     1     1     2 1
     2     1     3 1
     3     1     4 1
     4     4     5 2
     5     5     6 1
     6     6     7 ar
     7     6    10 ar
     8     7     8 ar
     9     8    11 ar
    10     9    10 ar
    11     9    11 ar
    12     4    12 1
    13     5    13 1
    14     7    14 1
    15    10    15 1
    16     8    16 1
    17     9    17 1
@<TRIPOS>SUBSTRUCTURE
     1 XIZ         1 TEMP              0 ****  ****    0 ROOT
