@<TRIPOS>MOLECULE
XIZ
   17    17     1     0     0
SMALL
bcc


@<TRIPOS>ATOM
      1 C1          0.1710    0.0930    0.0520 c         1 XIZ      0.888800
      2 O1          1.4060    0.3350   -0.0500 o         1 XIZ     -0.827800
      3 O2         -0.4370   -0.0650    1.1500 o         1 XIZ     -0.827800
      4 C2         -0.6630   -0.0190   -1.2100 ce        1 XIZ     -0.139200
      5 C3         -0.1440    0.1280   -2.4370 cf        1 XIZ     -0.200200
      6 C1'        -0.8710    0.0350   -3.6850 ca        1 XIZ      0.036200
      7 C2'        -0.1880    0.2030   -4.9060 ca        1 XIZ     -0.260300
      8 C3'        -0.9020    0.1120   -6.1080 ca        1 XIZ      0.380700
      9 C5'        -2.8740   -0.2910   -5.0080 ca        1 XIZ      0.380700
     10 C6'        -2.2520   -0.2190   -3.7530 ca        1 XIZ     -0.260300
     11 N4         -2.2270   -0.1320   -6.1800 nb        1 XIZ     -0.704000
     12 HA         -1.7290   -0.2310   -1.0340 ha        1 XIZ      0.101000
     13 H3          0.9390    0.3390   -2.5240 ha        1 XIZ      0.148000
     14 H2'         0.8910    0.4030   -4.9110 ha        1 XIZ      0.142000
     15 H6'        -2.8400   -0.3580   -2.8360 ha        1 XIZ      0.142000
     16 H3'        -0.3890    0.2390   -7.0770 h4        1 XIZ      0.000600
     17 H5'        -3.9570   -0.4890   -5.0850 h4        1 XIZ      0.000600
@<TRIPOS>BOND
     1    1    2 1   
     2    1    3 1   
     3    1    4 1   
     4    4    5 2   
     5    4   12 1   
     6    5    6 1   
     7    5   13 1   
     8    6    7 ar  
     9    6   10 ar  
    10    7    8 ar  
    11    7   14 1   
    12    8   11 ar  
    13    8   16 1   
    14    9   10 ar  
    15    9   11 ar  
    16    9   17 1   
    17   10   15 1   
@<TRIPOS>SUBSTRUCTURE
     1 XIZ         1 TEMP              0 ****  ****    0 ROOT
