@<TRIPOS>MOLECULE
XJ0
   18    20     1     0     0
SMALL
bcc


@<TRIPOS>ATOM
      1 OB           0.0000     0.0000     0.0000 o          1 XJ0      -0.600000
      2 C            1.2160     0.0000     0.0000 c3         1 XJ0       0.466000
      3 OA           1.8910     0.0000     1.1670 o          1 XJ0      -0.600000
      4 CA           1.9240    -0.0050    -1.2290 c2         1 XJ0      -0.181000
      5 CB           1.2480    -0.0110    -2.3980 c2         1 XJ0      -0.086000
      6 CG           1.9820    -0.0170    -3.6710 c3         1 XJ0      -0.073000
      7 CD           1.2990    -0.0230    -4.8970 c2         1 XJ0      -0.101500
      8 NE           1.9970    -0.0280    -6.0170 n2         1 XJ0      -0.131500
      9 CZ           3.3230    -0.0280    -5.9940 c2         1 XJ0      -0.099000
     10 NH2          4.0120    -0.0340    -7.1900 n8         1 XJ0       0.058000
     11 NH1          4.0070    -0.0220    -4.8570 n2         1 XJ0      -0.131500
     12 C10          3.3860    -0.0110    -3.6930 c2         1 XJ0      -0.101500
     13 HB           1.4580    -0.8780    -0.7870 DU         1 XJ0       0.134000
     14 HC           1.7130     0.8620    -2.8400 DU         1 XJ0       0.059000
     15 HD           0.2160    -0.0230    -4.9240 h4         1 XJ0       0.135500
     16 H10          3.9510    -0.0060    -2.7690 h4         1 XJ0       0.135500
     17 HH21         5.0130    -0.0340    -7.1910 hn         1 XJ0       0.058500
     18 HH22         3.5110    -0.0380    -8.0560 hn         1 XJ0       0.058500
@<TRIPOS>BOND
     1     1     2 1   
     2     2     3 1   
     3     2     4 1   
     4     2    13 1   
     5     4     5 1   
     6     4    13 1   
     7     5     6 1   
     8     5    14 1   
     9     6     7 1   
    10     6    12 1   
    11     6    14 1   
    12     7     8 1   
    13     7    15 1   
    14     8     9 1   
    15     9    10 1   
    16     9    11 1   
    17    10    17 1   
    18    10    18 1   
    19    11    12 1   
    20    12    16 1   
@<TRIPOS>SUBSTRUCTURE
     1 XJ0         1 TEMP              0 ****  ****    0 ROOT
