@<TRIPOS>MOLECULE
molecule
   18    18     1     0     0
SMALL
bcc


@<TRIPOS>ATOM
      1 OB           0.0000     0.0000     0.0000 o          1 XJ0      -0.840300
      2 C            1.2160     0.0000     0.0000 c          1 XJ0       0.860800
      3 OA           1.8910     0.0000     1.1670 o          1 XJ0      -0.840300
      4 CA           1.9240    -0.0050    -1.2290 ce         1 XJ0      -0.136200
      5 CB           1.2480    -0.0110    -2.3980 cf         1 XJ0      -0.168200
      6 CG           1.9820    -0.0170    -3.6710 ca         1 XJ0      -0.301400
      7 CD           1.2990    -0.0230    -4.8970 ca         1 XJ0       0.464700
      8 NE           1.9970    -0.0280    -6.0170 nb         1 XJ0      -0.790500
      9 CZ           3.3230    -0.0280    -5.9940 ca         1 XJ0       0.898900
     10 NH2          4.0120    -0.0340    -7.1900 nv         1 XJ0      -1.020500
     11 NH1          4.0070    -0.0220    -4.8570 nb         1 XJ0      -0.790500
     12 C10          3.3860    -0.0110    -3.6930 ca         1 XJ0       0.464700
     13 HB           3.0070    -0.0040    -1.2290 ha         1 XJ0       0.101000
     14 HC           0.1650    -0.0120    -2.3980 ha         1 XJ0       0.154000
     15 HD           0.2160    -0.0230    -4.9240 h4         1 XJ0       0.035100
     16 H10          3.9510    -0.0060    -2.7690 h4         1 XJ0       0.035100
     17 HH21         4.8860     0.4480    -7.2660 hn         1 XJ0       0.436300
     18 HH22         3.6390    -0.5220    -7.9800 hn         1 XJ0       0.436300
@<TRIPOS>BOND
     1     1     2 1
     2     2     3 1
     3     2     4 1
     4     4     5 2
     5     5     6 1
     6     6     7 ar
     7     6    12 ar
     8     7     8 ar
     9     8     9 ar
    10     9    10 1
    11     9    11 ar
    12    11    12 ar
    13     4    13 1
    14     5    14 1
    15     7    15 1
    16    12    16 1
    17    10    17 1
    18    10    18 1
@<TRIPOS>SUBSTRUCTURE
     1 XJ0         1 TEMP              0 ****  ****    0 ROOT
