@<TRIPOS>MOLECULE
XJ1
   47    51     1     0     0
SMALL
bcc


@<TRIPOS>ATOM
      1 C3           0.0000     0.0000     0.0000 c3         1 XJ1      -0.114500
      2 C4           1.5300     0.0000     0.0000 c3         1 XJ1      -0.101500
      3 C5           2.0410     0.0000     1.4420 c3         1 XJ1      -0.286000
      4 N8           3.5100    -0.0010     1.4410 nz         1 XJ1       0.848000
      5 C6           1.5320     1.2490     2.1620 c3         1 XJ1      -0.101500
      6 C7           0.0020     1.2500     2.1640 c3         1 XJ1      -0.114500
      7 C2          -0.5090     1.2500     0.7210 c3         1 XJ1      -0.061000
      8 N1          -1.9730     1.2510     0.7220 nu         1 XJ1       0.032000
      9 C9          -2.6680     2.4500     0.8270 c2         1 XJ1      -0.064000
     10 N10         -3.9930     2.4520     0.8280 n2         1 XJ1      -0.079000
     11 C14         -1.9710     3.6530     0.9370 c2         1 XJ1      -0.241000
     12 N13         -2.6280     4.7920     1.0370 n2         1 XJ1       0.022000
     13 C12         -3.9500     4.8000     1.0330 c2         1 XJ1      -0.168000
     14 C11         -4.6540     3.6020     0.9290 c2         1 XJ1       0.051000
     15 C15         -6.1370     3.6110     0.9290 c2         1 XJ1      -0.044000
     16 C16         -6.8270     4.8180     0.9300 c2         1 XJ1      -0.190000
     17 C20         -6.8420     2.4070     0.9230 c2         1 XJ1      -0.163000
     18 C19         -8.2240     2.4100     0.9230 c2         1 XJ1      -0.072000
     19 C18         -8.9170     3.6020     0.9290 c2         1 XJ1      -0.173000
     20 C17         -8.2230     4.8170     0.9300 c3         1 XJ1       0.089000
     21 C21         -8.9630     6.0900     0.9310 c2         1 XJ1      -0.081000
     22 C22        -10.3110     6.0860     0.9320 c2         1 XJ1      -0.167000
     23 C23        -11.0460     7.3510     0.9320 c3         1 XJ1       0.497000
     24 O25        -12.3950     7.3480     0.9330 o          1 XJ1      -0.573000
     25 O24        -10.4410     8.4060     0.9320 o          1 XJ1      -0.573000
     26 H31C        -0.3600    -0.8830     0.5140 hc         1 XJ1       0.086000
     27 H32C        -0.3600     0.0020    -1.0220 hc         1 XJ1       0.086000
     28 H41C         1.8900    -0.8860    -0.5090 hc         1 XJ1       0.071750
     29 H42C         1.8900     0.8860    -0.5090 hc         1 XJ1       0.071750
     30 H2          -0.1430     2.1330     0.2100 h1         1 XJ1       0.089000
     31 H5           1.6750    -0.8830     1.9520 hx         1 XJ1       0.135000
     32 H81N         3.8440     0.8160     0.9690 hn         1 XJ1       0.018000
     33 H82N         3.8440    -0.0010     2.3850 hn         1 XJ1       0.018000
     34 H61C         1.8920     2.1330     1.6490 hc         1 XJ1       0.071750
     35 H62C         1.8920     1.2470     3.1840 hc         1 XJ1       0.071750
     36 H71C        -0.3580     0.3640     2.6730 hc         1 XJ1       0.086000
     37 H72C        -0.3570     2.1360     2.6730 hc         1 XJ1       0.086000
     38 H1          -2.4740     0.3890     0.6310 hn         1 XJ1       0.100000
     39 H14         -0.8880     3.6520     0.9400 h4         1 XJ1       0.111000
     40 H12         -4.4860     5.7370     1.1160 h4         1 XJ1       0.156000
     41 H16         -6.2840     5.7550     0.9300 ha         1 XJ1       0.120000
     42 H20         -6.3040     1.4660     0.9180 ha         1 XJ1       0.106000
     43 H19         -8.7650     1.4710     0.9210 ha         1 XJ1       0.093000
     44 H18        -10.0010     3.5980     0.9290 ha         1 XJ1       0.133000
     45 H21         -8.8130     5.4690     1.8050 DU         1 XJ1       0.017000
     46 H22        -10.4590     6.7080     1.8070 DU         1 XJ1       0.084000
     47 H83          3.8430    -0.8100     0.9550 hn         1 XJ1       0.018000
@<TRIPOS>BOND
     1     1     2 1   
     2     1     7 1   
     3     1    26 1   
     4     1    27 1   
     5     2     3 1   
     6     2    28 1   
     7     2    29 1   
     8     3     4 1   
     9     3     5 1   
    10     3    31 1   
    11     4    32 1   
    12     4    33 1   
    13     4    47 1   
    14     5     6 1   
    15     5    34 1   
    16     5    35 1   
    17     6     7 1   
    18     6    36 1   
    19     6    37 1   
    20     7     8 1   
    21     7    30 1   
    22     8     9 1   
    23     8    38 1   
    24     9    10 1   
    25     9    11 1   
    26    10    14 1   
    27    11    12 1   
    28    11    39 1   
    29    12    13 1   
    30    13    14 1   
    31    13    40 1   
    32    14    15 1   
    33    15    16 1   
    34    15    17 1   
    35    16    20 1   
    36    16    41 1   
    37    17    18 1   
    38    17    42 1   
    39    18    19 1   
    40    18    43 1   
    41    19    20 1   
    42    19    44 1   
    43    20    21 1   
    44    20    45 1   
    45    21    22 1   
    46    21    45 1   
    47    22    23 1   
    48    22    46 1   
    49    23    24 1   
    50    23    25 1   
    51    23    46 1   
@<TRIPOS>SUBSTRUCTURE
     1 XJ1         1 TEMP              0 ****  ****    0 ROOT
