@<TRIPOS>MOLECULE
molecule
   47    49     1     0     0
SMALL
bcc


@<TRIPOS>ATOM
      1 C3           0.0000     0.0000     0.0000 c3         1 XJ1      -0.092900
      2 C4           1.5300     0.0000     0.0000 c3         1 XJ1      -0.100400
      3 C5           2.0410     0.0000     1.4420 c3         1 XJ1       0.093500
      4 N8           3.5100    -0.0010     1.4410 nz         1 XJ1      -0.810600
      5 C6           1.5320     1.2490     2.1620 c3         1 XJ1      -0.100400
      6 C7           0.0020     1.2500     2.1640 c3         1 XJ1      -0.092900
      7 C2          -0.5090     1.2500     0.7210 c3         1 XJ1       0.249500
      8 N1          -1.9730     1.2510     0.7220 nu         1 XJ1      -0.923900
      9 C9          -2.6680     2.4500     0.8270 ca         1 XJ1       0.570900
     10 N10         -3.9930     2.4520     0.8280 nb         1 XJ1      -0.724000
     11 C14         -1.9710     3.6530     0.9370 ca         1 XJ1       0.193900
     12 N13         -2.6280     4.7920     1.0370 nb         1 XJ1      -0.614000
     13 C12         -3.9500     4.8000     1.0330 ca         1 XJ1       0.254900
     14 C11         -4.6540     3.6020     0.9290 cp         1 XJ1       0.450500
     15 C15         -6.1370     3.6110     0.9290 cp         1 XJ1      -0.181500
     16 C16         -6.8270     4.8180     0.9300 ca         1 XJ1      -0.116000
     17 C20         -6.8420     2.4070     0.9230 ca         1 XJ1      -0.117000
     18 C19         -8.2240     2.4100     0.9230 ca         1 XJ1      -0.138000
     19 C18         -8.9170     3.6020     0.9290 ca         1 XJ1      -0.112000
     20 C17         -8.2230     4.8170     0.9300 ca         1 XJ1      -0.006800
     21 C21         -8.9630     6.0900     0.9310 ce         1 XJ1      -0.199200
     22 C22        -10.3110     6.0860     0.9320 cf         1 XJ1      -0.118200
     23 C23        -11.0460     7.3510     0.9320 c          1 XJ1       0.860800
     24 O25        -12.3950     7.3480     0.9330 o          1 XJ1      -0.828300
     25 O24        -10.4410     8.4060     0.9320 o          1 XJ1      -0.828300
     26 H31C        -0.3600    -0.8830     0.5140 hc         1 XJ1       0.079700
     27 H32C        -0.3600     0.0020    -1.0220 hc         1 XJ1       0.079700
     28 H41C         1.8900    -0.8860    -0.5090 hc         1 XJ1       0.063950
     29 H42C         1.8900     0.8860    -0.5090 hc         1 XJ1       0.063950
     30 H2          -0.1430     2.1330     0.2100 h1         1 XJ1       0.069700
     31 H5           1.6750    -0.8830     1.9520 hx         1 XJ1       0.117700
     32 H81N         3.8430    -0.8190     0.9690 hn         1 XJ1       0.452800
     33 H82N         3.8440    -0.0010     2.3850 hn         1 XJ1       0.452800
     34 H61C         1.8920     1.2470     3.1840 hc         1 XJ1       0.063950
     35 H62C         1.8920     2.1330     1.6490 hc         1 XJ1       0.063950
     36 H71C        -0.3580     0.3640     2.6730 hc         1 XJ1       0.079700
     37 H72C        -0.3570     2.1360     2.6730 hc         1 XJ1       0.079700
     38 H1          -2.4740     0.3890     0.6310 hn         1 XJ1       0.454800
     39 H14         -0.8880     3.6520     0.9400 h4         1 XJ1       0.000100
     40 H12         -4.4860     5.7370     1.1160 h4         1 XJ1       0.054100
     41 H16         -6.2840     5.7550     0.9300 ha         1 XJ1       0.133000
     42 H20         -6.3040     1.4660     0.9180 ha         1 XJ1       0.130000
     43 H19         -8.7650     1.4710     0.9210 ha         1 XJ1       0.124000
     44 H18        -10.0010     3.5980     0.9290 ha         1 XJ1       0.153000
     45 H21         -8.4230     7.0300     0.9300 ha         1 XJ1       0.156000
     46 H22        -10.8500     5.1470     0.9310 ha         1 XJ1       0.104000
     47 H83          3.8440     0.8140     0.9670 hn         1 XJ1       0.452800
@<TRIPOS>BOND
     1     1     2 1
     2     1     7 1
     3     2     3 1
     4     3     4 1
     5     3     5 1
     6     5     6 1
     7     6     7 1
     8     7     8 1
     9     8     9 1
    10     9    10 ar
    11     9    11 ar
    12    10    14 ar
    13    11    12 ar
    14    12    13 ar
    15    13    14 ar
    16    14    15 1
    17    15    16 ar
    18    15    17 ar
    19    16    20 ar
    20    17    18 ar
    21    18    19 ar
    22    19    20 ar
    23    20    21 1
    24    21    22 2
    25    22    23 1
    26    23    24 1
    27    23    25 1
    28     1    26 1
    29     1    27 1
    30     2    28 1
    31     2    29 1
    32     7    30 1
    33     3    31 1
    34     4    32 1
    35     4    33 1
    36     5    34 1
    37     5    35 1
    38     6    36 1
    39     6    37 1
    40     8    38 1
    41    11    39 1
    42    13    40 1
    43    16    41 1
    44    17    42 1
    45    18    43 1
    46    19    44 1
    47    21    45 1
    48    22    46 1
    49    47     4 1
@<TRIPOS>SUBSTRUCTURE
     1 XJ1         1 TEMP              0 ****  ****    0 ROOT
