@<TRIPOS>MOLECULE
molecule
   63    67     1     0     0
SMALL
bcc


@<TRIPOS>ATOM
      1 C25          0.0000     0.0000     0.0000 c          1 XJ8       0.678700
      2 O26          1.2150     0.0000     0.0000 o          1 XJ8      -0.599100
      3 C27         -0.7380     0.0000     1.2790 ca         1 XJ8      -0.190600
      4 C28         -2.1400    -0.0000     1.2790 ca         1 XJ8      -0.050000
      5 C29         -2.8350     0.0000     2.4520 ca         1 XJ8      -0.195000
      6 C30         -2.1570     0.0020     3.6690 ca         1 XJ8       0.118600
      7 C31         -0.7500     0.0030     3.6840 ca         1 XJ8      -0.159800
      8 C32         -0.0410    -0.0040     2.4840 ca         1 XJ8       0.009000
      9 C33         -0.0520     0.0050     4.9780 cc         1 XJ8       0.206900
     10 C34         -0.8030     0.0070     6.1190 cd         1 XJ8      -0.304200
     11 C35         -2.2040     0.0060     6.0400 c          1 XJ8       0.705700
     12 O36         -2.8560     0.0080     7.0710 o          1 XJ8      -0.640500
     13 N37         -2.8480     0.0030     4.8610 ns         1 XJ8      -0.429100
     14 O38          1.2990     0.0050     5.0380 oh         1 XJ8      -0.504100
     15 N24         -0.6740    -0.0010    -1.1670 ns         1 XJ8      -0.570900
     16 C21          0.0580    -0.0020    -2.4350 c3         1 XJ8       0.050700
     17 C22         -0.8070     0.5970    -3.5150 c          1 XJ8       0.648100
     18 O23         -1.9250     0.9860    -3.2490 o          1 XJ8      -0.616100
     19 C20          0.4210    -1.4390    -2.8130 c3         1 XJ8      -0.045100
     20 C17          1.3850    -1.9970    -1.7970 ca         1 XJ8      -0.075300
     21 C16          0.9060    -2.6570    -0.6810 ca         1 XJ8      -0.115000
     22 C18          2.7470    -1.8490    -1.9820 ca         1 XJ8      -0.115000
     23 C15          1.7900    -3.1670     0.2520 ca         1 XJ8      -0.118000
     24 C19          3.6310    -2.3610    -1.0500 ca         1 XJ8      -0.118000
     25 C14          3.1520    -3.0200     0.0670 ca         1 XJ8      -0.121000
     26 C1           0.3660     0.1230    -9.1200 ca         1 XJ8       0.427600
     27 C2           0.9780     1.3150    -9.5430 ca         1 XJ8      -0.154300
     28 C3           0.8800     2.4340    -8.7740 ca         1 XJ8      -0.126000
     29 C4           0.1790     2.4190    -7.5700 ca         1 XJ8      -0.107000
     30 C5          -0.4270     1.2820    -7.1280 ca         1 XJ8      -0.104300
     31 C6          -0.3450     0.1100    -7.8950 ca         1 XJ8      -0.153300
     32 N7           0.4430    -0.9910    -9.8590 nb         1 XJ8      -0.702000
     33 C8          -0.1290    -2.1110    -9.4670 ca         1 XJ8       0.691200
     34 C9          -0.8420    -2.1900    -8.2630 ca         1 XJ8      -0.249300
     35 N10         -0.0230    -3.2400   -10.2670 nv         1 XJ8      -1.085500
     36 C11         -0.9590    -1.0860    -7.4710 ca         1 XJ8      -0.087000
     37 C12         -1.1800     1.2820    -5.8220 c3         1 XJ8       0.159300
     38 N13         -0.3390     0.7010    -4.7740 ns         1 XJ8      -0.578900
     39 H28         -2.6760     0.0000     0.3380 ha         1 XJ8       0.138000
     40 H32          1.0330     0.1380     2.4890 ha         1 XJ8       0.176000
     41 H29         -3.9180     0.0000     2.4380 ha         1 XJ8       0.143000
     42 H37         -3.8490     0.0030     4.8490 hn         1 XJ8       0.341500
     43 H34         -0.3170     0.0060     7.0870 ha         1 XJ8       0.173000
     44 H38          1.5960     0.8020     5.4440 ho         1 XJ8       0.437000
     45 H24         -1.6750     0.0360    -1.1670 hn         1 XJ8       0.334500
     46 H21          0.9630     0.5840    -2.3310 h1         1 XJ8       0.098700
     47 H201        -0.4760    -2.0460    -2.8310 hc         1 XJ8       0.054200
     48 H202         0.8830    -1.4490    -3.7930 hc         1 XJ8       0.054200
     49 H16         -0.1610    -2.7720    -0.5360 ha         1 XJ8       0.122500
     50 H18          3.1220    -1.3330    -2.8570 ha         1 XJ8       0.122500
     51 H15          1.4150    -3.6840     1.1270 ha         1 XJ8       0.127500
     52 H19          4.6980    -2.2450    -1.1940 ha         1 XJ8       0.127500
     53 H14          3.8450    -3.4200     0.7970 ha         1 XJ8       0.127000
     54 H3           1.3530     3.3510    -9.1040 ha         1 XJ8       0.137000
     55 H4           0.1160     3.3230    -6.9770 ha         1 XJ8       0.136000
     56 H121        -1.4380     2.3000    -5.5550 h1         1 XJ8       0.062200
     57 H122        -2.0840     0.6960    -5.9270 h1         1 XJ8       0.062200
     58 H11         -1.5070    -1.1290    -6.5370 ha         1 XJ8       0.146000
     59 H9          -1.3030    -3.1230    -7.9640 ha         1 XJ8       0.145000
     60 H101         0.7490    -3.8660   -10.1490 hn         1 XJ8       0.438300
     61 H102        -0.7030    -3.4130   -10.9800 hn         1 XJ8       0.438300
     62 H13          0.6020     0.4290    -4.9810 hn         1 XJ8       0.323500
     63 H2           1.5270     1.3430   -10.4770 ha         1 XJ8       0.152000
@<TRIPOS>BOND
     1    26    27 ar
     2    26    31 ar
     3    26    32 ar
     4    27    28 ar
     5    28    29 ar
     6    29    30 ar
     7    30    31 ar
     8    30    37 1
     9    31    36 ar
    10    32    33 ar
    11    33    34 ar
    12    33    35 1
    13    34    36 ar
    14    37    38 1
    15    38    17 1
    16    25    23 ar
    17    25    24 ar
    18    23    21 ar
    19    21    20 ar
    20    20    22 ar
    21    20    19 1
    22    22    24 ar
    23    19    16 1
    24    16    17 1
    25    16    15 1
    26    17    18 2
    27    15     1 1
    28     1     2 2
    29     1     3 1
    30     3     4 ar
    31     3     8 ar
    32     4     5 ar
    33     5     6 ar
    34     6     7 ar
    35     6    13 1
    36     7     8 ar
    37     7     9 1
    38     9    10 2
    39     9    14 1
    40    10    11 1
    41    11    12 2
    42    11    13 1
    43    27    63 1
    44    28    54 1
    45    29    55 1
    46    37    56 1
    47    37    57 1
    48    36    58 1
    49    34    59 1
    50    35    60 1
    51    35    61 1
    52    38    62 1
    53    25    53 1
    54    23    51 1
    55    24    52 1
    56    21    49 1
    57    22    50 1
    58    19    47 1
    59    19    48 1
    60    16    46 1
    61    15    45 1
    62     4    39 1
    63     8    40 1
    64     5    41 1
    65    13    42 1
    66    10    43 1
    67    14    44 1
@<TRIPOS>SUBSTRUCTURE
     1 XJ8         1 TEMP              0 ****  ****    0 ROOT
