@<TRIPOS>MOLECULE
XJ8
   63    67     1     0     0
SMALL
bcc


@<TRIPOS>ATOM
      1 C25          0.0000     0.0000     0.0000 c          1 XJ8       0.599700
      2 O26          1.2150     0.0000     0.0000 o          1 XJ8      -0.645100
      3 C27         -0.7380     0.0000     1.2790 ca         1 XJ8      -0.201600
      4 C28         -2.1400    -0.0000     1.2790 ca         1 XJ8      -0.026000
      5 C29         -2.8350     0.0000     2.4520 ca         1 XJ8      -0.167000
      6 C30         -2.1570     0.0020     3.6690 ca         1 XJ8      -0.039400
      7 C31         -0.7500     0.0030     3.6840 ca         1 XJ8      -0.162800
      8 C32         -0.0410    -0.0040     2.4840 ca         1 XJ8       0.045000
      9 C33         -0.0520     0.0050     4.9780 cc         1 XJ8       0.228900
     10 C34         -0.8030     0.0070     6.1190 cd         1 XJ8      -0.301200
     11 C35         -2.2040     0.0060     6.0400 c          1 XJ8       0.606700
     12 O36         -2.8560     0.0080     7.0710 o          1 XJ8      -0.688500
     13 N37         -2.8480     0.0030     4.8610 ns         1 XJ8       0.040900
     14 O38          1.2990     0.0050     5.0380 oh         1 XJ8      -0.484100
     15 N24         -0.6740    -0.0010    -1.1670 ns         1 XJ8      -0.181900
     16 C21          0.0580    -0.0020    -2.4350 c3         1 XJ8      -0.049300
     17 C22         -0.8070     0.5970    -3.5150 c          1 XJ8       0.562100
     18 O23         -1.9250     0.9860    -3.2490 o          1 XJ8      -0.657100
     19 C20          0.4210    -1.4390    -2.8130 c3         1 XJ8       0.021900
     20 C17          1.3850    -1.9970    -1.7970 ca         1 XJ8      -0.085300
     21 C16          0.9060    -2.6570    -0.6810 ca         1 XJ8      -0.090500
     22 C18          2.7470    -1.8490    -1.9820 ca         1 XJ8      -0.090500
     23 C15          1.7900    -3.1670     0.2520 ca         1 XJ8      -0.089000
     24 C19          3.6310    -2.3610    -1.0500 ca         1 XJ8      -0.089000
     25 C14          3.1520    -3.0200     0.0670 ca         1 XJ8      -0.094000
     26 C1           0.3660     0.1230    -9.1200 ca         1 XJ8       0.378600
     27 C2           0.9780     1.3150    -9.5430 ca         1 XJ8      -0.127300
     28 C3           0.8800     2.4340    -8.7740 ca         1 XJ8      -0.100000
     29 C4           0.1790     2.4190    -7.5700 ca         1 XJ8      -0.073000
     30 C5          -0.4270     1.2820    -7.1280 ca         1 XJ8      -0.114300
     31 C6          -0.3450     0.1100    -7.8950 ca         1 XJ8      -0.138300
     32 N7           0.4430    -0.9910    -9.8590 nb         1 XJ8      -0.574000
     33 C8          -0.1290    -2.1110    -9.4670 ca         1 XJ8       0.505200
     34 C9          -0.8420    -2.1900    -8.2630 ca         1 XJ8      -0.211300
     35 N10         -0.0230    -3.2400   -10.2670 nv         1 XJ8      -0.662500
     36 C11         -0.9590    -1.0860    -7.4710 ca         1 XJ8      -0.073000
     37 C12         -1.1800     1.2820    -5.8220 c3         1 XJ8       0.107300
     38 N13         -0.3390     0.7010    -4.7740 ns         1 XJ8      -0.185900
     39 H28         -2.6760     0.0000     0.3380 ha         1 XJ8       0.109000
     40 H32          1.0330     0.1380     2.4890 ha         1 XJ8       0.140000
     41 H29         -3.9180     0.0000     2.4380 ha         1 XJ8       0.117000
     42 H37         -3.8490     0.0030     4.8490 hn         1 XJ8       0.178500
     43 H34         -0.3170     0.0060     7.0870 ha         1 XJ8       0.146000
     44 H38          1.5960     0.8020     5.4440 ho         1 XJ8       0.416000
     45 H24         -1.6750     0.0360    -1.1670 hn         1 XJ8       0.201500
     46 H21          0.9630     0.5840    -2.3310 h1         1 XJ8       0.071700
     47 H201        -0.4760    -2.0460    -2.8310 hc         1 XJ8       0.022200
     48 H202         0.8830    -1.4490    -3.7930 hc         1 XJ8       0.022200
     49 H16         -0.1610    -2.7720    -0.5360 ha         1 XJ8       0.098500
     50 H18          3.1220    -1.3330    -2.8570 ha         1 XJ8       0.098500
     51 H15          1.4150    -3.6840     1.1270 ha         1 XJ8       0.099500
     52 H19          4.6980    -2.2450    -1.1940 ha         1 XJ8       0.099500
     53 H14          3.8450    -3.4200     0.7970 ha         1 XJ8       0.100000
     54 H3           1.3530     3.3510    -9.1040 ha         1 XJ8       0.107000
     55 H4           0.1160     3.3230    -6.9770 ha         1 XJ8       0.109000
     56 H121        -1.4380     2.3000    -5.5550 h1         1 XJ8       0.033700
     57 H122        -2.0840     0.6960    -5.9270 h1         1 XJ8       0.033700
     58 H11         -1.5070    -1.1290    -6.5370 ha         1 XJ8       0.118000
     59 H9          -1.3030    -3.1230    -7.9640 ha         1 XJ8       0.119000
     60 H101         0.7490    -3.8660   -10.1490 hn         1 XJ8       0.278800
     61 H102        -0.7030    -3.4130   -10.9800 hn         1 XJ8       0.278800
     62 H13          0.6020     0.4290    -4.9810 hn         1 XJ8       0.185500
     63 H2           1.5270     1.3430   -10.4770 ha         1 XJ8       0.120000
@<TRIPOS>BOND
     1     1     2 2   
     2     1     3 1   
     3     1    15 1   
     4     3     4 ar  
     5     3     8 ar  
     6     4     5 ar  
     7     4    39 1   
     8     5     6 ar  
     9     5    41 1   
    10     6     7 ar  
    11     6    13 1   
    12     7     8 ar  
    13     7     9 1   
    14     8    40 1   
    15     9    10 2   
    16     9    14 1   
    17    10    11 1   
    18    10    43 1   
    19    11    12 2   
    20    11    13 1   
    21    13    42 1   
    22    14    44 1   
    23    15    16 1   
    24    15    45 1   
    25    16    17 1   
    26    16    19 1   
    27    16    46 1   
    28    17    18 2   
    29    17    38 1   
    30    19    20 1   
    31    19    47 1   
    32    19    48 1   
    33    20    21 ar  
    34    20    22 ar  
    35    21    23 ar  
    36    21    49 1   
    37    22    24 ar  
    38    22    50 1   
    39    23    25 ar  
    40    23    51 1   
    41    24    25 ar  
    42    24    52 1   
    43    25    53 1   
    44    26    27 ar  
    45    26    31 ar  
    46    26    32 ar  
    47    27    28 ar  
    48    27    63 1   
    49    28    29 ar  
    50    28    54 1   
    51    29    30 ar  
    52    29    55 1   
    53    30    31 ar  
    54    30    37 1   
    55    31    36 ar  
    56    32    33 ar  
    57    33    34 ar  
    58    33    35 1   
    59    34    36 ar  
    60    34    59 1   
    61    35    60 1   
    62    35    61 1   
    63    36    58 1   
    64    37    38 1   
    65    37    56 1   
    66    37    57 1   
    67    38    62 1   
@<TRIPOS>SUBSTRUCTURE
     1 XJ8         1 TEMP              0 ****  ****    0 ROOT
