@<TRIPOS>MOLECULE
XJG
   44    46     1     0     0
SMALL
bcc


@<TRIPOS>ATOM
      1 C1           0.0000     0.0000     0.0000 c3         1 XJG       0.004400
      2 C2           1.5300     0.0000     0.0000 c3         1 XJG       0.010600
      3 C3           2.0410     0.0000     1.4420 c3         1 XJG       0.004400
      4 C4           2.0320    -1.2300    -0.7120 ca         1 XJG      -0.151300
      5 C5           1.6990    -2.4790    -0.2390 ca         1 XJG      -0.029000
      6 C6           2.1640    -3.6220    -0.8970 ca         1 XJG      -0.223600
      7 C7           1.8090    -4.9600    -0.3950 c          1 XJG       0.650700
      8 O8           2.6570    -5.8290    -0.3280 o          1 XJG      -0.639100
      9 N9           0.5440    -5.2220    -0.0090 n          1 XJG      -0.163800
     10 C10          0.0580    -6.4590     0.6090 c3         1 XJG       0.115800
     11 C11         -1.4190    -6.2950     0.8630 ca         1 XJG      -0.113800
     12 C12         -2.3500    -7.1530     1.4230 ca         1 XJG      -0.071500
     13 C13         -3.6680    -6.7610     1.5480 ca         1 XJG      -0.098000
     14 C14         -4.0600    -5.5070     1.1150 ca         1 XJG      -0.098000
     15 C15         -3.1310    -4.6490     0.5560 ca         1 XJG      -0.071500
     16 C16         -1.8100    -5.0420     0.4310 ca         1 XJG      -0.113800
     17 C17         -0.6070    -4.3210    -0.1230 c3         1 XJG       0.115800
     18 C18          2.9700    -3.4880    -2.0370 ca         1 XJG       0.232100
     19 O19          3.4260    -4.5920    -2.6830 oh         1 XJG      -0.483100
     20 C20          3.2990    -2.2270    -2.5030 ca         1 XJG      -0.287000
     21 C21          2.8280    -1.1000    -1.8460 ca         1 XJG       0.200100
     22 O22          3.1470     0.1360    -2.3090 os         1 XJG      -0.303900
     23 C19          3.9650     0.1990    -3.4770 c3         1 XJG       0.242700
     24 H11C        -0.3610     1.0170     0.0890 hc         1 XJG       0.004367
     25 H12C        -0.3610    -0.5860     0.8370 hc         1 XJG       0.004367
     26 H13C        -0.3610    -0.4320    -0.9260 hc         1 XJG       0.004367
     27 H2           1.8910     0.8850    -0.5110 hc         1 XJG       0.042700
     28 H31C         1.8480     0.9650     1.8940 hc         1 XJG       0.004367
     29 H32C         1.5310    -0.7710     2.0060 hc         1 XJG       0.004367
     30 H33C         3.1070    -0.1940     1.4470 hc         1 XJG       0.004367
     31 H5           1.1340    -2.5770     0.6800 ha         1 XJG       0.122000
     32 H101         0.5660    -6.6070     1.5540 h1         1 XJG       0.028450
     33 H102         0.2110    -7.2830    -0.0780 h1         1 XJG       0.028450
     34 H171        -0.4250    -3.4200     0.4500 h1         1 XJG       0.028450
     35 H172        -0.7770    -4.0740    -1.1640 h1         1 XJG       0.028450
     36 H12         -2.0430    -8.1350     1.7620 ha         1 XJG       0.104000
     37 H13         -4.3950    -7.4340     1.9860 ha         1 XJG       0.105000
     38 H14         -5.0930    -5.1980     1.2120 ha         1 XJG       0.105000
     39 H15         -3.4380    -3.6670     0.2170 ha         1 XJG       0.104000
     40 H19          4.3670    -4.6140    -2.6410 ho         1 XJG       0.413000
     41 H20          3.9190    -2.1200    -3.3850 ha         1 XJG       0.134000
     42 H191         4.1400     1.2350    -3.7400 h1         1 XJG      -0.000633
     43 H192         4.9120    -0.2890    -3.2810 h1         1 XJG      -0.000633
     44 H193         3.4640    -0.3020    -4.2970 h1         1 XJG      -0.000633
@<TRIPOS>BOND
     1     1     2 1   
     2     1    24 1   
     3     1    25 1   
     4     1    26 1   
     5     2     3 1   
     6     2     4 1   
     7     2    27 1   
     8     3    28 1   
     9     3    29 1   
    10     3    30 1   
    11     4     5 ar  
    12     4    21 ar  
    13     5     6 ar  
    14     5    31 1   
    15     6     7 1   
    16     6    18 ar  
    17     7     8 2   
    18     7     9 1   
    19     9    10 1   
    20     9    17 1   
    21    10    11 1   
    22    10    32 1   
    23    10    33 1   
    24    11    12 ar  
    25    11    16 ar  
    26    12    13 ar  
    27    12    36 1   
    28    13    14 ar  
    29    13    37 1   
    30    14    15 ar  
    31    14    38 1   
    32    15    16 ar  
    33    15    39 1   
    34    16    17 1   
    35    17    34 1   
    36    17    35 1   
    37    18    19 1   
    38    18    20 ar  
    39    19    40 1   
    40    20    21 ar  
    41    20    41 1   
    42    21    22 1   
    43    22    23 1   
    44    23    42 1   
    45    23    43 1   
    46    23    44 1   
@<TRIPOS>SUBSTRUCTURE
     1 XJG         1 TEMP              0 ****  ****    0 ROOT
