@<TRIPOS>MOLECULE
molecule
   50    53     1     0     0
SMALL
bcc


@<TRIPOS>ATOM
      1 N01          0.0000     0.0000     0.0000 nb         1 XJH      -0.718000
      2 C02          1.3240     0.0000     0.0000 ca         1 XJH       0.682200
      3 N02          2.0140     0.0010    -1.2070 nv         1 XJH      -1.082500
      4 C03          2.0320     0.0000     1.1980 ca         1 XJH      -0.264300
      5 C04          1.3340    -0.0010     2.3910 ca         1 XJH      -0.088000
      6 C05         -0.0540    -0.0000     2.3470 ca         1 XJH      -0.261300
      7 C06         -0.6920    -0.0000     1.1230 ca         1 XJH       0.436600
      8 C07         -2.1980     0.0000     1.0680 c3         1 XJH      -0.114700
      9 N1'         -3.4960     3.3960     0.6370 n7         1 XJH      -0.790200
     10 O10         -4.7580     0.0600     0.8290 os         1 XJH      -0.325900
     11 C11         -6.0010    -0.3580     0.4710 ca         1 XJH       0.172100
     12 C12         -6.6590     0.2500    -0.5890 ca         1 XJH      -0.256000
     13 C13         -7.9230    -0.1750    -0.9520 ca         1 XJH      -0.055000
     14 C14         -8.5340    -1.2040    -0.2630 ca         1 XJH      -0.247000
     15 C15         -7.8790    -1.8150     0.7980 ca         1 XJH       0.171100
     16 C16         -6.6090    -1.3950     1.1610 ca         1 XJH      -0.191000
     17 C2'         -2.3360     2.5150     0.9240 c3         1 XJH       0.138800
     18 O20         -8.4800    -2.8270     1.4760 os         1 XJH      -0.246200
     19 C21         -9.6770    -3.2800     1.0180 ca         1 XJH       0.103100
     20 C22         -9.7420    -3.9890    -0.1750 ca         1 XJH      -0.139500
     21 C23        -10.9600    -4.4470    -0.6390 ca         1 XJH      -0.118000
     22 C24        -12.1130    -4.2020     0.0830 ca         1 XJH      -0.132000
     23 C25        -12.0520    -3.4960     1.2710 ca         1 XJH      -0.118000
     24 C26        -10.8350    -3.0400     1.7430 ca         1 XJH      -0.139500
     25 C3'         -2.6780     1.1820     0.2240 c3         1 XJH      -0.059700
     26 C4'         -4.2160     1.1710     0.1110 c3         1 XJH       0.135100
     27 C5'         -4.6750     2.4980     0.7530 c3         1 XJH       0.110800
     28 HN02         2.3600     0.8610    -1.5850 hn         1 XJH       0.435300
     29 HN0A         2.1450    -0.8550    -1.7090 hn         1 XJH       0.435300
     30 H03          3.1150    -0.0000     1.1950 ha         1 XJH       0.142000
     31 H04          1.8580    -0.0010     3.3400 ha         1 XJH       0.136000
     32 H05         -0.6310    -0.0010     3.2640 ha         1 XJH       0.138000
     33 H07         -2.5960     0.0890     2.0720 hc         1 XJH       0.067700
     34 H07A        -2.5440    -0.9250     0.6230 hc         1 XJH       0.067700
     35 HN1'        -3.5520     4.1120     1.3340 hn         1 XJH       0.349800
     36 H12         -6.1820     1.0570    -1.1310 ha         1 XJH       0.141000
     37 H13         -8.4360     0.3010    -1.7800 ha         1 XJH       0.133000
     38 H14         -9.5260    -1.5330    -0.5490 ha         1 XJH       0.146000
     39 H16         -6.0960    -1.8700     1.9880 ha         1 XJH       0.155000
     40 H2'         -1.4300     2.9380     0.5060 h1         1 XJH       0.046700
     41 H2'A        -2.2330     2.3640     1.9910 h1         1 XJH       0.046700
     42 H22         -8.8390    -4.1810    -0.7410 ha         1 XJH       0.145500
     43 H23        -11.0110    -5.0000    -1.5690 ha         1 XJH       0.135500
     44 H24        -13.0670    -4.5600    -0.2840 ha         1 XJH       0.133000
     45 H25        -12.9570    -3.3070     1.8350 ha         1 XJH       0.135500
     46 H26        -10.7880    -2.4880     2.6740 ha         1 XJH       0.145500
     47 H3'         -2.2310     1.1530    -0.7630 hc         1 XJH       0.091700
     48 H4'         -4.5150     1.1360    -0.9300 h1         1 XJH       0.067700
     49 H5'         -5.5160     2.9090     0.2070 h1         1 XJH       0.051700
     50 H5'A        -4.9300     2.3450     1.7940 h1         1 XJH       0.051700
@<TRIPOS>BOND
     1     2     1 ar
     2     7     1 ar
     3     4     2 ar
     4     2     3 1
     5     3    28 1
     6     3    29 1
     7     5     4 ar
     8     4    30 1
     9     5     6 ar
    10     5    31 1
    11     6     7 ar
    12     6    32 1
    13     7     8 1
    14     8    25 1
    15     8    33 1
    16     8    34 1
    17    17     9 1
    18     9    27 1
    19     9    35 1
    20    10    26 1
    21    10    11 1
    22    12    11 ar
    23    11    16 ar
    24    12    13 ar
    25    12    36 1
    26    13    14 ar
    27    13    37 1
    28    14    15 ar
    29    14    38 1
    30    16    15 ar
    31    15    18 1
    32    16    39 1
    33    17    25 1
    34    17    40 1
    35    17    41 1
    36    18    19 1
    37    24    19 ar
    38    19    20 ar
    39    21    20 ar
    40    20    42 1
    41    22    21 ar
    42    21    43 1
    43    23    22 ar
    44    22    44 1
    45    23    24 ar
    46    23    45 1
    47    24    46 1
    48    25    26 1
    49    25    47 1
    50    27    26 1
    51    26    48 1
    52    27    49 1
    53    27    50 1
@<TRIPOS>SUBSTRUCTURE
     1 XJH         1 TEMP              0 ****  ****    0 ROOT
