@<TRIPOS>MOLECULE
XJO
   72    75     1     0     0
SMALL
bcc


@<TRIPOS>ATOM
      1 O4           0.0000     0.0000     0.0000 o          1 XJO      -0.348000
      2 C26          1.2210     0.0000     0.0000 c3         1 XJO       0.311000
      3 C            1.9160     0.0000     1.2870 c2         1 XJO      -0.138000
      4 C24          1.9480    -0.0070    -1.3080 c3         1 XJO      -0.131000
      5 C25          3.2070    -0.8700    -1.2420 c3         1 XJO      -0.124000
      6 C23          2.2270     1.3660    -1.8770 c3         1 XJO      -0.078000
      7 C21          2.6410     2.4430    -0.8900 c3         1 XJO      -0.089000
      8 C22          3.9040     2.0650    -0.1260 c3         1 XJO      -0.137000
      9 C10          1.5000     2.8430     0.0320 c3         1 XJO       0.038000
     10 C8           1.9480     3.8500     1.0910 c3         1 XJO      -0.104000
     11 C9           1.0500     5.0910     1.0100 c3         1 XJO      -0.119000
     12 C7           1.7780     3.2190     2.4560 c2         1 XJO       0.369000
     13 O1           0.9180     3.6320     3.1970 o          1 XJO      -0.369000
     14 O            2.5730     2.2080     2.8280 os         1 XJO      -0.234000
     15 C4           2.2780     1.5220     4.0700 c3         1 XJO       0.027000
     16 C5           3.5230     1.5040     4.9600 c3         1 XJO      -0.125000
     17 C6           3.8790     2.9350     5.3670 c3         1 XJO      -0.116000
     18 C2           1.8480     0.0830     3.7680 DU         1 XJO      -0.044000
     19 C3           3.0600    -0.8440     3.8210 c3         1 XJO      -0.138000
     20 C1           1.1970     0.0190     2.4120 c2         1 XJO      -0.195000
     21 O2           0.4350     3.4470    -0.7600 os         1 XJO      -0.247000
     22 C11         -0.8310     3.2180    -0.3590 c2         1 XJO       0.401000
     23 O3          -1.0450     2.5070     0.6010 o          1 XJO      -0.344000
     24 C12         -1.9590     3.8340    -1.0870 ca         1 XJO      -0.101000
     25 C17         -3.2640     3.6870    -0.6130 ca         1 XJO      -0.009000
     26 C18         -3.5260     2.9000     0.6460 c3         1 XJO      -0.057000
     27 N           -3.4240     1.4640     0.3550 n3         1 XJO      -0.031000
     28 C20         -3.4600     0.6720     1.5910 c3         1 XJO      -0.096500
     29 C19         -4.4800     1.0380    -0.5740 c3         1 XJO      -0.096500
     30 C16         -4.3130     4.2640    -1.2980 ca         1 XJO      -0.119000
     31 C15         -4.0750     4.9870    -2.4530 ca         1 XJO      -0.073000
     32 C14         -2.7840     5.1360    -2.9290 ca         1 XJO      -0.124000
     33 C13         -1.7250     4.5690    -2.2520 ca         1 XJO      -0.060000
     34 H            1.5230    -0.8980     0.8260 DU         1 XJO       0.061000
     35 H24          1.2860    -0.4940    -2.0150 hc         1 XJO       0.084000
     36 H1           1.7340     0.8690     2.8170 DU         1 XJO       0.186000
     37 H251         3.7760    -0.7480    -2.1550 hc         1 XJO       0.050000
     38 H252         3.8110    -0.5620    -0.3970 hc         1 XJO       0.050000
     39 H253         2.9260    -1.9100    -1.1260 hc         1 XJO       0.050000
     40 H231         1.3330     1.7050    -2.3850 hc         1 XJO       0.064000
     41 H232         3.0160     1.2680    -2.6140 hc         1 XJO       0.064000
     42 H21          2.8870     3.3210    -1.4750 hc         1 XJO       0.065000
     43 H221         4.6270     1.6420    -0.8130 hc         1 XJO       0.057000
     44 H222         4.3220     2.9480     0.3400 hc         1 XJO       0.057000
     45 H223         3.6600     1.3350     0.6360 hc         1 XJO       0.057000
     46 H10          1.1160     1.9570     0.5240 h1         1 XJO       0.129000
     47 H8           2.9830     4.1260     0.9320 hc         1 XJO       0.098000
     48 H91C         1.0190     5.4480    -0.0120 hc         1 XJO       0.061333
     49 H92C         1.4480     5.8670     1.6520 hc         1 XJO       0.061333
     50 H93C         0.0480     4.8340     1.3330 hc         1 XJO       0.061333
     51 H4           1.4760     2.0370     4.5840 h1         1 XJO       0.104000
     52 H51C         4.3510     1.0670     4.4140 hc         1 XJO       0.072500
     53 H52C         3.3240     0.9150     5.8470 hc         1 XJO       0.072500
     54 HA           1.1310    -0.2330     4.5170 ha         1 XJO       0.093000
     55 H61C         4.6000     2.9110     6.1750 hc         1 XJO       0.047000
     56 H62C         2.9850     3.4500     5.6960 hc         1 XJO       0.047000
     57 H63C         4.3050     3.4570     4.5190 hc         1 XJO       0.047000
     58 H31C         3.8760    -0.4040     3.2600 hc         1 XJO       0.056333
     59 H32C         3.3640    -0.9830     4.8510 hc         1 XJO       0.056333
     60 H33C         2.8010    -1.8030     3.3880 hc         1 XJO       0.056333
     61 H13         -0.7150     4.6870    -2.6260 ha         1 XJO       0.114000
     62 H181        -4.5200     3.1250     1.0120 h1         1 XJO       0.065500
     63 H182        -2.7940     3.1690     1.3980 h1         1 XJO       0.065500
     64 H16         -5.3260     4.1500    -0.9300 ha         1 XJO       0.110000
     65 H201        -4.4770     0.6260     1.9620 h1         1 XJO       0.038833
     66 H202        -3.1050    -0.3320     1.3880 h1         1 XJO       0.038833
     67 H203        -2.8250     1.1360     2.3360 h1         1 XJO       0.038833
     68 H191        -5.4160     1.5080    -0.2960 h1         1 XJO       0.038833
     69 H192        -4.2140     1.3320    -1.5820 h1         1 XJO       0.038833
     70 H193        -4.5890    -0.0390    -0.5280 h1         1 XJO       0.038833
     71 H15         -4.9020     5.4370    -2.9880 ha         1 XJO       0.101000
     72 H14         -2.6040     5.7050    -3.8330 ha         1 XJO       0.104000
@<TRIPOS>BOND
     1     1     2 1   
     2     2     3 1   
     3     2     4 1   
     4     2    34 1   
     5     3    20 1   
     6     3    34 1   
     7     4     5 1   
     8     4     6 1   
     9     4    35 1   
    10     5    37 1   
    11     5    38 1   
    12     5    39 1   
    13     6     7 1   
    14     6    40 1   
    15     6    41 1   
    16     7     8 1   
    17     7     9 1   
    18     7    42 1   
    19     8    43 1   
    20     8    44 1   
    21     8    45 1   
    22     9    10 1   
    23     9    21 1   
    24     9    46 1   
    25    10    11 1   
    26    10    12 1   
    27    10    47 1   
    28    11    48 1   
    29    11    49 1   
    30    11    50 1   
    31    12    13 1   
    32    12    14 1   
    33    14    15 1   
    34    15    16 1   
    35    15    18 1   
    36    15    51 1   
    37    16    17 1   
    38    16    52 1   
    39    16    53 1   
    40    17    55 1   
    41    17    56 1   
    42    17    57 1   
    43    18    19 1   
    44    18    20 1   
    45    18    36 1   
    46    18    54 1   
    47    19    58 1   
    48    19    59 1   
    49    19    60 1   
    50    20    36 1   
    51    21    22 1   
    52    22    23 1   
    53    22    24 1   
    54    24    25 1   
    55    24    33 1   
    56    25    26 1   
    57    25    30 1   
    58    26    27 1   
    59    26    62 1   
    60    26    63 1   
    61    27    28 1   
    62    27    29 1   
    63    28    65 1   
    64    28    66 1   
    65    28    67 1   
    66    29    68 1   
    67    29    69 1   
    68    29    70 1   
    69    30    31 1   
    70    30    64 1   
    71    31    32 1   
    72    31    71 1   
    73    32    33 1   
    74    32    72 1   
    75    33    61 1   
@<TRIPOS>SUBSTRUCTURE
     1 XJO         1 TEMP              0 ****  ****    0 ROOT
