@<TRIPOS>MOLECULE
molecule
   72    73     1     0     0
SMALL
bcc


@<TRIPOS>ATOM
      1 O4           0.0000     0.0000     0.0000 o          1 XJO      -0.511100
      2 C26          1.2210     0.0000     0.0000 c          1 XJO       0.555300
      3 C            1.9160     0.0000     1.2870 ce         1 XJO      -0.266200
      4 C24          1.9480    -0.0070    -1.3080 c3         1 XJO      -0.161700
      5 C25          3.2070    -0.8700    -1.2420 c3         1 XJO      -0.088100
      6 C23          2.2270     1.3660    -1.8770 c3         1 XJO      -0.056400
      7 C21          2.6410     2.4430    -0.8900 c3         1 XJO      -0.069700
      8 C22          3.9040     2.0650    -0.1260 c3         1 XJO      -0.098100
      9 C10          1.5000     2.8430     0.0320 c3         1 XJO       0.150100
     10 C8           1.9480     3.8500     1.0910 c3         1 XJO      -0.128700
     11 C9           1.0500     5.0910     1.0100 c3         1 XJO      -0.078100
     12 C7           1.7780     3.2190     2.4560 c          1 XJO       0.636100
     13 O1           0.9180     3.6320     3.1970 o          1 XJO      -0.538000
     14 O            2.5730     2.2080     2.8280 os         1 XJO      -0.428900
     15 C4           2.2780     1.5220     4.0700 c3         1 XJO       0.152100
     16 C5           3.5230     1.5040     4.9600 c3         1 XJO      -0.090400
     17 C6           3.8790     2.9350     5.3670 c3         1 XJO      -0.095100
     18 C2           1.8480     0.0830     3.7680 c3         1 XJO      -0.059500
     19 C3           3.0600    -0.8440     3.8210 c3         1 XJO      -0.090100
     20 C1           1.1970     0.0190     2.4120 c2         1 XJO      -0.084200
     21 O2           0.4350     3.4470    -0.7600 os         1 XJO      -0.432900
     22 C11         -0.8310     3.2180    -0.3590 c          1 XJO       0.639700
     23 O3          -1.0450     2.5070     0.6010 o          1 XJO      -0.505000
     24 C12         -1.9590     3.8340    -1.0870 ca         1 XJO      -0.107600
     25 C17         -3.2640     3.6870    -0.6130 ca         1 XJO      -0.016300
     26 C18         -3.5260     2.9000     0.6460 c3         1 XJO       0.204100
     27 N           -3.4240     1.4640     0.3550 n3         1 XJO      -0.699600
     28 C20         -3.4600     0.6720     1.5910 c3         1 XJO       0.155100
     29 C19         -4.4800     1.0380    -0.5740 c3         1 XJO       0.155100
     30 C16         -4.3130     4.2640    -1.2980 ca         1 XJO      -0.142000
     31 C15         -4.0750     4.9870    -2.4530 ca         1 XJO      -0.102000
     32 C14         -2.7840     5.1360    -2.9290 ca         1 XJO      -0.149000
     33 C13         -1.7250     4.5690    -2.2520 ca         1 XJO      -0.085000
     34 H            2.9980     0.0300     1.3280 ha         1 XJO       0.143000
     35 H24          1.2860    -0.4940    -2.0150 hc         1 XJO       0.071700
     36 H1           0.1150     0.0340     2.3490 ha         1 XJO       0.160000
     37 H251         3.6540    -0.9320    -2.2260 hc         1 XJO       0.038367
     38 H252         3.9130    -0.4250    -0.5520 hc         1 XJO       0.038367
     39 H253         2.9460    -1.8640    -0.9000 hc         1 XJO       0.038367
     40 H231         1.3330     1.7050    -2.3850 hc         1 XJO       0.053200
     41 H232         3.0160     1.2680    -2.6130 hc         1 XJO       0.053200
     42 H21          2.8870     3.3210    -1.4750 hc         1 XJO       0.054700
     43 H221         3.6450     1.4120     0.6990 hc         1 XJO       0.045367
     44 H222         4.3770     2.9610     0.2570 hc         1 XJO       0.045367
     45 H223         4.5880     1.5520    -0.7920 hc         1 XJO       0.045367
     46 H10          1.1160     1.9570     0.5240 h1         1 XJO       0.094700
     47 H8           2.9830     4.1260     0.9320 hc         1 XJO       0.082700
     48 H91C         0.0390     4.8240     1.2930 hc         1 XJO       0.052033
     49 H92C         1.0530     5.4730    -0.0030 hc         1 XJO       0.052033
     50 H93C         1.4240     5.8520     1.6840 hc         1 XJO       0.052033
     51 H4           1.4760     2.0370     4.5840 h1         1 XJO       0.082700
     52 H51C         3.3240     0.9150     5.8470 hc         1 XJO       0.054700
     53 H52C         4.3510     1.0670     4.4140 hc         1 XJO       0.054700
     54 HA           1.1310    -0.2330     4.5170 hc         1 XJO       0.066700
     55 H61C         4.5950     2.9110     6.1800 hc         1 XJO       0.039033
     56 H62C         4.3110     3.4550     4.5200 hc         1 XJO       0.039033
     57 H63C         2.9840     3.4520     5.6900 hc         1 XJO       0.039033
     58 H31C         3.3080    -1.0560     4.8540 hc         1 XJO       0.041033
     59 H32C         3.9030    -0.3640     3.3390 hc         1 XJO       0.041033
     60 H33C         2.8290    -1.7700     3.3070 hc         1 XJO       0.041033
     61 H13         -0.7150     4.6870    -2.6260 ha         1 XJO       0.145000
     62 H181        -4.5200     3.1250     1.0120 h1         1 XJO       0.049200
     63 H182        -2.7940     3.1690     1.3980 h1         1 XJO       0.049200
     64 H16         -5.3260     4.1510    -0.9300 ha         1 XJO       0.136000
     65 H201        -2.8240     1.1350     2.3360 h1         1 XJO       0.029533
     66 H202        -4.4770     0.6280     1.9630 h1         1 XJO       0.029533
     67 H203        -3.1070    -0.3320     1.3880 h1         1 XJO       0.029533
     68 H191        -4.2100     1.3230    -1.5840 h1         1 XJO       0.029533
     69 H192        -4.5960    -0.0380    -0.5210 h1         1 XJO       0.029533
     70 H193        -5.4140     1.5160    -0.3020 h1         1 XJO       0.029533
     71 H15         -4.9020     5.4370    -2.9880 ha         1 XJO       0.131000
     72 H14         -2.6040     5.7050    -3.8330 ha         1 XJO       0.132000
@<TRIPOS>BOND
     1     1     2 2
     2     2     3 1
     3     2     4 1
     4     3    20 2
     5     4     5 1
     6     4     6 1
     7     6     7 1
     8     7     8 1
     9     7     9 1
    10     9    10 1
    11     9    21 1
    12    10    11 1
    13    10    12 1
    14    12    13 2
    15    12    14 1
    16    14    15 1
    17    15    16 1
    18    15    18 1
    19    16    17 1
    20    18    19 1
    21    18    20 1
    22    21    22 1
    23    22    23 2
    24    22    24 1
    25    24    25 ar
    26    24    33 ar
    27    25    26 1
    28    25    30 ar
    29    26    27 1
    30    27    28 1
    31    27    29 1
    32    30    31 ar
    33    31    32 ar
    34    32    33 ar
    35     3    34 1
    36     4    35 1
    37    20    36 1
    38     5    37 1
    39     5    38 1
    40     5    39 1
    41     6    40 1
    42     6    41 1
    43     7    42 1
    44     8    43 1
    45     8    44 1
    46     8    45 1
    47     9    46 1
    48    10    47 1
    49    11    48 1
    50    11    49 1
    51    11    50 1
    52    15    51 1
    53    16    52 1
    54    16    53 1
    55    18    54 1
    56    17    55 1
    57    17    56 1
    58    17    57 1
    59    19    58 1
    60    19    59 1
    61    19    60 1
    62    33    61 1
    63    26    62 1
    64    26    63 1
    65    30    64 1
    66    28    65 1
    67    28    66 1
    68    28    67 1
    69    29    68 1
    70    29    69 1
    71    29    70 1
    72    31    71 1
    73    32    72 1
@<TRIPOS>SUBSTRUCTURE
     1 XJO         1 TEMP              0 ****  ****    0 ROOT
