@<TRIPOS>MOLECULE
XJX
   61    64     1     0     0
SMALL
bcc


@<TRIPOS>ATOM
      1 C1           0.0000     0.0000     0.0000 c3         1 XJX       0.004400
      2 C2           1.5300     0.0000     0.0000 c3         1 XJX       0.010600
      3 C3           2.0400     0.0000     1.4430 c3         1 XJX       0.004400
      4 C4           2.0320    -1.2300    -0.7110 ca         1 XJX      -0.158300
      5 C5           1.6990    -2.4780    -0.2390 ca         1 XJX      -0.023000
      6 C6           2.1630    -3.6210    -0.8980 ca         1 XJX      -0.219600
      7 C7           1.8080    -4.9590    -0.3960 c          1 XJX       0.646700
      8 O8           2.6560    -5.8290    -0.3310 o          1 XJX      -0.633100
      9 N9           0.5440    -5.2200    -0.0090 n          1 XJX      -0.163800
     10 C10         -0.6080    -4.3220    -0.1260 c3         1 XJX       0.104300
     11 C11         -1.8090    -5.0390     0.4370 ca         1 XJX      -0.118300
     12 C12         -3.1300    -4.6460     0.5650 ca         1 XJX      -0.072000
     13 C13         -4.0580    -5.5020     1.1240 ca         1 XJX      -0.101000
     14 C14         -3.6670    -6.7560     1.5560 ca         1 XJX      -0.086300
     15 C15         -4.6780    -7.6920     2.1670 c3         1 XJX       0.213100
     16 N16         -5.2830    -8.5160     1.1100 n3         1 XJX      -0.539600
     17 C18         -6.0940    -9.5980     1.6860 c3         1 XJX       0.145800
     18 C19         -6.6400   -10.4770     0.5590 c3         1 XJX       0.155300
     19 N20         -7.4400    -9.6530    -0.3580 n3         1 XJX      -0.550600
     20 C22         -8.0450   -10.4760    -1.4140 c3         1 XJX       0.189100
     21 C23         -6.6290    -8.5700    -0.9330 c3         1 XJX       0.155300
     22 C24         -6.0830    -7.6910     0.1940 c3         1 XJX       0.145800
     23 C25         -2.3490    -7.1500     1.4280 ca         1 XJX      -0.051000
     24 C26         -1.4180    -6.2920     0.8680 ca         1 XJX      -0.109300
     25 C27          0.0560    -6.4600     0.6040 c3         1 XJX       0.127300
     26 C28          2.9700    -3.4870    -2.0380 ca         1 XJX       0.236100
     27 O29          3.4250    -4.5900    -2.6840 oh         1 XJX      -0.460100
     28 C30          3.2980    -2.2260    -2.5040 ca         1 XJX      -0.295000
     29 C31          2.8270    -1.0980    -1.8460 ca         1 XJX       0.205100
     30 O32          3.1470     0.1360    -2.3080 oh         1 XJX      -0.479100
     31 H11C        -0.3610    -0.6260     0.8070 hc         1 XJX       0.004200
     32 H12C        -0.3610     1.0120     0.1390 hc         1 XJX       0.004200
     33 H13C        -0.3610    -0.3860    -0.9460 hc         1 XJX       0.004200
     34 H2           1.8910     0.8850    -0.5110 hc         1 XJX       0.044700
     35 H31C         1.9400     0.9940     1.8610 hc         1 XJX       0.004200
     36 H32C         1.4600    -0.7000     2.0310 hc         1 XJX       0.004200
     37 H33C         3.0830    -0.2940     1.4570 hc         1 XJX       0.004200
     38 H5           1.1390    -2.5760     0.6830 ha         1 XJX       0.122000
     39 H10A        -0.7830    -4.1030    -1.1720 h1         1 XJX       0.028200
     40 H27A         0.5780    -6.6360     1.5370 h1         1 XJX       0.029200
     41 H10B        -0.4220    -3.4290     0.4590 h1         1 XJX       0.028200
     42 H27B         0.2140    -7.2900    -0.0740 h1         1 XJX       0.029200
     43 H12         -3.4370    -3.6630     0.2270 ha         1 XJX       0.103000
     44 H13         -5.0740    -5.1660     1.2890 ha         1 XJX       0.110000
     45 H151        -5.4500    -7.1170     2.6630 h1         1 XJX       0.013200
     46 H152        -4.1860    -8.3340     2.8880 h1         1 XJX       0.013200
     47 H25         -2.0430    -8.1330     1.7670 ha         1 XJX       0.111000
     48 H181        -6.9210    -9.1720     2.2430 h1         1 XJX       0.017200
     49 H182        -5.4790   -10.1980     2.3450 h1         1 XJX       0.017200
     50 H241        -6.9080    -7.2470     0.7370 h1         1 XJX       0.017200
     51 H242        -5.4590    -6.9120    -0.2270 h1         1 XJX       0.017200
     52 H191        -7.2640   -11.2570     0.9790 h1         1 XJX       0.014200
     53 H192        -5.8140   -10.9210     0.0160 h1         1 XJX       0.014200
     54 H221        -8.6520    -9.8490    -2.0570 h1         1 XJX       0.000033
     55 H222        -8.6670   -11.2400    -0.9630 h1         1 XJX       0.000033
     56 H223        -7.2640   -10.9440    -1.9990 h1         1 XJX       0.000033
     57 H231        -7.2440    -7.9700    -1.5920 h1         1 XJX       0.014200
     58 H232        -5.8030    -8.9960    -1.4900 h1         1 XJX       0.014200
     59 H29          4.2950    -4.4280    -3.0080 ho         1 XJX       0.405000
     60 H30          3.9180    -2.1190    -3.3850 ha         1 XJX       0.121000
     61 H32          4.0230     0.1240    -2.6560 ho         1 XJX       0.406000
@<TRIPOS>BOND
     1     1     2 1   
     2     1    31 1   
     3     1    32 1   
     4     1    33 1   
     5     2     3 1   
     6     2     4 1   
     7     2    34 1   
     8     3    35 1   
     9     3    36 1   
    10     3    37 1   
    11     4     5 ar  
    12     4    29 ar  
    13     5     6 ar  
    14     5    38 1   
    15     6     7 1   
    16     6    26 ar  
    17     7     8 2   
    18     7     9 1   
    19     9    10 1   
    20     9    25 1   
    21    10    11 1   
    22    10    39 1   
    23    10    41 1   
    24    11    12 ar  
    25    11    24 ar  
    26    12    13 ar  
    27    12    43 1   
    28    13    14 ar  
    29    13    44 1   
    30    14    15 1   
    31    14    23 ar  
    32    15    16 1   
    33    15    45 1   
    34    15    46 1   
    35    16    17 1   
    36    16    22 1   
    37    17    18 1   
    38    17    48 1   
    39    17    49 1   
    40    18    19 1   
    41    18    52 1   
    42    18    53 1   
    43    19    20 1   
    44    19    21 1   
    45    20    54 1   
    46    20    55 1   
    47    20    56 1   
    48    21    22 1   
    49    21    57 1   
    50    21    58 1   
    51    22    50 1   
    52    22    51 1   
    53    23    24 ar  
    54    23    47 1   
    55    24    25 1   
    56    25    40 1   
    57    25    42 1   
    58    26    27 1   
    59    26    28 ar  
    60    27    59 1   
    61    28    29 ar  
    62    28    60 1   
    63    29    30 1   
    64    30    61 1   
@<TRIPOS>SUBSTRUCTURE
     1 XJX         1 TEMP              0 ****  ****    0 ROOT
