@<TRIPOS>MOLECULE
molecule
   61    64     1     0     0
SMALL
bcc


@<TRIPOS>ATOM
      1 C1           0.0000     0.0000     0.0000 c3         1 XJX      -0.086100
      2 C2           1.5300     0.0000     0.0000 c3         1 XJX      -0.024400
      3 C3           2.0400     0.0000     1.4430 c3         1 XJX      -0.086100
      4 C4           2.0320    -1.2300    -0.7110 ca         1 XJX      -0.135300
      5 C5           1.6990    -2.4780    -0.2390 ca         1 XJX      -0.049000
      6 C6           2.1630    -3.6210    -0.8980 ca         1 XJX      -0.192600
      7 C7           1.8080    -4.9590    -0.3960 c          1 XJX       0.711700
      8 O8           2.6560    -5.8290    -0.3310 o          1 XJX      -0.586100
      9 N9           0.5440    -5.2200    -0.0090 n          1 XJX      -0.494800
     10 C10         -0.6080    -4.3220    -0.1260 c3         1 XJX       0.144300
     11 C11         -1.8090    -5.0390     0.4370 ca         1 XJX      -0.111300
     12 C12         -3.1300    -4.6460     0.5650 ca         1 XJX      -0.107000
     13 C13         -4.0580    -5.5020     1.1240 ca         1 XJX      -0.124000
     14 C14         -3.6670    -6.7560     1.5560 ca         1 XJX      -0.074300
     15 C15         -4.6780    -7.6920     2.1670 c3         1 XJX       0.209100
     16 N16         -5.2830    -8.5160     1.1100 n3         1 XJX      -0.726600
     17 C18         -6.0940    -9.5980     1.6860 c3         1 XJX       0.160800
     18 C19         -6.6400   -10.4770     0.5590 c3         1 XJX       0.163800
     19 N20         -7.4400    -9.6530    -0.3580 n3         1 XJX      -0.735600
     20 C22         -8.0450   -10.4760    -1.4140 c3         1 XJX       0.153100
     21 C23         -6.6290    -8.5700    -0.9330 c3         1 XJX       0.163800
     22 C24         -6.0830    -7.6910     0.1940 c3         1 XJX       0.160800
     23 C25         -2.3490    -7.1500     1.4280 ca         1 XJX      -0.085000
     24 C26         -1.4180    -6.2920     0.8680 ca         1 XJX      -0.103300
     25 C27          0.0560    -6.4600     0.6040 c3         1 XJX       0.156300
     26 C28          2.9700    -3.4870    -2.0380 ca         1 XJX       0.207100
     27 O29          3.4250    -4.5900    -2.6840 oh         1 XJX      -0.479100
     28 C30          3.2980    -2.2260    -2.5040 ca         1 XJX      -0.297000
     29 C31          2.8270    -1.0980    -1.8460 ca         1 XJX       0.179100
     30 O32          3.1470     0.1360    -2.3080 oh         1 XJX      -0.499100
     31 H11C        -0.3610    -0.6260     0.8070 hc         1 XJX       0.035867
     32 H12C        -0.3610     1.0120     0.1390 hc         1 XJX       0.035867
     33 H13C        -0.3610    -0.3860    -0.9460 hc         1 XJX       0.035867
     34 H2           1.8910     0.8850    -0.5110 hc         1 XJX       0.073700
     35 H31C         1.9400     0.9940     1.8610 hc         1 XJX       0.035867
     36 H32C         1.4600    -0.7000     2.0310 hc         1 XJX       0.035867
     37 H33C         3.0830    -0.2940     1.4570 hc         1 XJX       0.035867
     38 H5           1.1390    -2.5760     0.6830 ha         1 XJX       0.150000
     39 H10A        -0.7830    -4.1030    -1.1720 h1         1 XJX       0.056700
     40 H27A         0.5780    -6.6360     1.5370 h1         1 XJX       0.064200
     41 H10B        -0.4220    -3.4290     0.4590 h1         1 XJX       0.056700
     42 H27B         0.2140    -7.2900    -0.0740 h1         1 XJX       0.064200
     43 H12         -3.4370    -3.6630     0.2270 ha         1 XJX       0.131000
     44 H13         -5.0740    -5.1660     1.2890 ha         1 XJX       0.134000
     45 H151        -5.4500    -7.1170     2.6630 h1         1 XJX       0.041200
     46 H152        -4.1860    -8.3340     2.8880 h1         1 XJX       0.041200
     47 H25         -2.0430    -8.1330     1.7670 ha         1 XJX       0.139000
     48 H181        -6.9210    -9.1720     2.2430 h1         1 XJX       0.042450
     49 H182        -5.4790   -10.1980     2.3450 h1         1 XJX       0.042450
     50 H241        -6.9080    -7.2470     0.7370 h1         1 XJX       0.042450
     51 H242        -5.4590    -6.9120    -0.2270 h1         1 XJX       0.042450
     52 H191        -7.2640   -11.2570     0.9790 h1         1 XJX       0.041450
     53 H192        -5.8140   -10.9210     0.0160 h1         1 XJX       0.041450
     54 H221        -8.6520    -9.8490    -2.0570 h1         1 XJX       0.032033
     55 H222        -8.6670   -11.2400    -0.9630 h1         1 XJX       0.032033
     56 H223        -7.2640   -10.9440    -1.9990 h1         1 XJX       0.032033
     57 H231        -7.2440    -7.9700    -1.5920 h1         1 XJX       0.041450
     58 H232        -5.8030    -8.9960    -1.4900 h1         1 XJX       0.041450
     59 H29          4.2950    -4.4280    -3.0080 ho         1 XJX       0.426000
     60 H30          3.9180    -2.1190    -3.3850 ha         1 XJX       0.140000
     61 H32          4.0230     0.1240    -2.6560 ho         1 XJX       0.425000
@<TRIPOS>BOND
     1     1     2 1
     2     2     3 1
     3     2     4 1
     4     4     5 ar
     5     4    29 ar
     6     5     6 ar
     7     6     7 1
     8     6    26 ar
     9     7     8 2
    10     7     9 1
    11     9    10 1
    12     9    25 1
    13    10    11 1
    14    11    12 ar
    15    11    24 ar
    16    12    13 ar
    17    13    14 ar
    18    14    15 1
    19    14    23 ar
    20    15    16 1
    21    16    17 1
    22    16    22 1
    23    17    18 1
    24    18    19 1
    25    19    20 1
    26    19    21 1
    27    21    22 1
    28    23    24 ar
    29    24    25 1
    30    26    27 1
    31    26    28 ar
    32    28    29 ar
    33    29    30 1
    34     1    31 1
    35     1    32 1
    36     1    33 1
    37     2    34 1
    38     3    35 1
    39     3    36 1
    40     3    37 1
    41     5    38 1
    42    10    39 1
    43    10    41 1
    44    25    40 1
    45    25    42 1
    46    12    43 1
    47    13    44 1
    48    15    45 1
    49    15    46 1
    50    23    47 1
    51    17    48 1
    52    17    49 1
    53    22    50 1
    54    22    51 1
    55    18    52 1
    56    18    53 1
    57    20    54 1
    58    20    55 1
    59    20    56 1
    60    21    57 1
    61    21    58 1
    62    27    59 1
    63    28    60 1
    64    30    61 1
@<TRIPOS>SUBSTRUCTURE
     1 XJX         1 TEMP              0 ****  ****    0 ROOT
