@<TRIPOS>MOLECULE
XK0
   33    34     1     0     0
SMALL
bcc


@<TRIPOS>ATOM
      1 N13          0.0000     0.0000     0.0000 nz         1 XK0       0.201400
      2 C8           1.3750     0.0000     0.0000 c2         1 XK0       0.157100
      3 N3           1.9750     0.0000     1.1310 n2         1 XK0      -0.363900
      4 S12          2.2010    -0.0090    -1.5520 ss         1 XK0      -0.251300
      5 C9           3.8680    -0.4690    -1.0090 c3         1 XK0       0.098700
      6 C4           4.2290     0.4110     0.1960 c3         1 XK0      -0.066400
      7 C1           3.3980    -0.0310     1.3970 c3         1 XK0       0.169500
      8 C5           3.7980    -1.4570     1.7770 c3         1 XK0       0.003900
      9 C2           3.6950     0.8820     2.5580 ca         1 XK0      -0.149300
     10 C7           2.7440     1.0810     3.5410 ca         1 XK0      -0.056500
     11 C11          3.0140     1.9170     4.6060 ca         1 XK0      -0.178500
     12 C14          4.2420     2.5580     4.6910 ca         1 XK0       0.183100
     13 O15          4.5100     3.3800     5.7380 os         1 XK0      -0.296900
     14 C16          5.7960     4.0060     5.7590 c3         1 XK0       0.243700
     15 C10          5.1960     2.3550     3.7030 ca         1 XK0      -0.178500
     16 C6           4.9220     1.5140     2.6420 ca         1 XK0      -0.056500
     17 H131        -0.3340     0.7310     0.5970 hn         1 XK0       0.219800
     18 H132        -0.3340     0.1520    -0.9310 hn         1 XK0       0.219800
     19 H91C         3.8830    -1.5120    -0.7170 h1         1 XK0       0.078200
     20 H92C         4.5750    -0.2970    -1.8120 h1         1 XK0       0.078200
     21 H41C         5.2820     0.2980     0.4240 hc         1 XK0       0.065200
     22 H42C         4.0110     1.4470    -0.0340 hc         1 XK0       0.065200
     23 H51C         3.2420    -2.1620     1.1710 hc         1 XK0       0.027700
     24 H52C         3.5760    -1.6280     2.8240 hc         1 XK0       0.027700
     25 H53C         4.8590    -1.5930     1.6070 hc         1 XK0       0.027700
     26 H7           1.7890     0.5740     3.4800 ha         1 XK0       0.117500
     27 H6           5.8960     1.5080     2.1690 ha         1 XK0       0.117500
     28 H11          2.2790     2.0490     5.3910 ha         1 XK0       0.131000
     29 H10          6.1340     2.8960     3.7370 ha         1 XK0       0.131000
     30 H161         6.5670     3.2460     5.7680 h1         1 XK0       0.004367
     31 H162         5.8840     4.6200     6.6470 h1         1 XK0       0.004367
     32 H163         5.9090     4.6260     4.8780 h1         1 XK0       0.004367
     33 H133        -0.3340    -0.8770     0.3480 hn         1 XK0       0.219800
@<TRIPOS>BOND
     1     1     2 1   
     2     1    17 1   
     3     1    18 1   
     4     1    33 1   
     5     2     3 2   
     6     2     4 1   
     7     3     7 1   
     8     4     5 1   
     9     5     6 1   
    10     5    19 1   
    11     5    20 1   
    12     6     7 1   
    13     6    21 1   
    14     6    22 1   
    15     7     8 1   
    16     7     9 1   
    17     8    23 1   
    18     8    24 1   
    19     8    25 1   
    20     9    10 ar  
    21     9    16 ar  
    22    10    11 ar  
    23    10    26 1   
    24    11    12 ar  
    25    11    28 1   
    26    12    13 1   
    27    12    15 ar  
    28    13    14 1   
    29    14    30 1   
    30    14    31 1   
    31    14    32 1   
    32    15    16 ar  
    33    15    29 1   
    34    16    27 1   
@<TRIPOS>SUBSTRUCTURE
     1 XK0         1 TEMP              0 ****  ****    0 ROOT
