@<TRIPOS>MOLECULE
XK2
   84    90     1     0     0
SMALL
bcc


@<TRIPOS>ATOM
      1 C1           0.0000     0.0000     0.0000 c          1 XK2       0.641500
      2 O1          -0.5500     0.1450    -1.0740 o          1 XK2      -0.766500
      3 N2           1.3230     0.0000     0.0000 n          1 XK2      -0.137300
      4 C2           2.0080     0.0010    -1.2950 c3         1 XK2       0.105300
      5 C3           2.1450     0.0000     1.2040 c3         1 XK2      -0.011300
      6 C4           1.5910     0.9850     2.2430 c3         1 XK2       0.137600
      7 O4           2.6590     1.4160     3.0900 oh         1 XK2      -0.580300
      8 C5           0.5040     0.3580     3.1000 c3         1 XK2       0.137600
      9 O5          -0.3960     1.3790     3.5340 oh         1 XK2      -0.580300
     10 C6          -0.2760    -0.6940     2.3300 c3         1 XK2      -0.011300
     11 N7          -0.7910    -0.1440     1.0760 n          1 XK2      -0.137300
     12 C7          -2.1980     0.2570     0.9910 c3         1 XK2       0.105300
     13 C20          2.2440     1.4220    -1.7370 ca         1 XK2      -0.122300
     14 C21          3.4230     2.0680    -1.3720 ca         1 XK2      -0.089000
     15 C22          3.6670     3.3500    -1.7540 ca         1 XK2      -0.099000
     16 C23          2.7180     4.0370    -2.5310 ca         1 XK2      -0.032000
     17 C24          2.9350     5.3620    -2.9450 ca         1 XK2      -0.090500
     18 C25          1.9920     5.9950    -3.6960 ca         1 XK2      -0.101500
     19 C26          0.8130     5.3500    -4.0610 ca         1 XK2      -0.107000
     20 C27          0.5690     4.0670    -3.6770 ca         1 XK2      -0.085000
     21 C28          1.5180     3.3800    -2.9010 ca         1 XK2      -0.042000
     22 C29          1.3050     2.0540    -2.4920 ca         1 XK2      -0.053500
     23 C31          2.1540    -1.4050     1.8100 c3         1 XK2      -0.011600
     24 C32          3.5630    -1.9400     1.8190 ca         1 XK2      -0.094300
     25 C33          4.3790    -1.7160     2.9120 ca         1 XK2      -0.099500
     26 C34          5.6720    -2.2050     2.9210 ca         1 XK2      -0.097750
     27 C35          6.1480    -2.9200     1.8370 ca         1 XK2      -0.101500
     28 C36          5.3310    -3.1450     0.7450 ca         1 XK2      -0.097750
     29 C37          4.0380    -2.6580     0.7380 ca         1 XK2      -0.099500
     30 C61         -1.4500    -1.1760     3.1830 c3         1 XK2      -0.011600
     31 C62         -0.9240    -1.8950     4.4000 ca         1 XK2      -0.094300
     32 C63         -0.7720    -1.2130     5.5920 ca         1 XK2      -0.099500
     33 C64         -0.2900    -1.8720     6.7080 ca         1 XK2      -0.097750
     34 C65          0.0390    -3.2120     6.6310 ca         1 XK2      -0.101500
     35 C66         -0.1130    -3.8940     5.4390 ca         1 XK2      -0.097750
     36 C67         -0.5990    -3.2360     4.3240 ca         1 XK2      -0.099500
     37 C70         -2.3150     1.7370     1.2510 ca         1 XK2      -0.122300
     38 C71         -2.6380     2.1750     2.4970 ca         1 XK2      -0.053500
     39 C72         -2.7430     3.5540     2.7440 ca         1 XK2      -0.042000
     40 C73         -3.0690     4.0450     4.0200 ca         1 XK2      -0.085000
     41 C74         -3.1670     5.3890     4.2190 ca         1 XK2      -0.107000
     42 C75         -2.9480     6.2870     3.1780 ca         1 XK2      -0.101500
     43 C76         -2.6310     5.8480     1.9290 ca         1 XK2      -0.090500
     44 C77         -2.5200     4.4680     1.6830 ca         1 XK2      -0.032000
     45 C78         -2.1940     3.9780     0.4080 ca         1 XK2      -0.099000
     46 C79         -2.0970     2.6360     0.2080 ca         1 XK2      -0.089000
     47 H21A         1.3940    -0.5080    -2.0280 h1         1 XK2       0.041700
     48 H22A         2.9580    -0.5110    -1.2010 h1         1 XK2       0.041700
     49 H3           3.1570     0.2890     0.9450 h1         1 XK2       0.081200
     50 H4           1.1770     1.8420     1.7260 h1         1 XK2       0.038700
     51 HO4          2.6820     2.3590     3.1110 ho         1 XK2       0.393000
     52 H5           0.9620    -0.1070     3.9650 h1         1 XK2       0.038700
     53 HO5          0.0000     1.8710     4.2350 ho         1 XK2       0.393000
     54 H6           0.3770    -1.5290     2.1080 h1         1 XK2       0.081200
     55 H71A        -2.7740    -0.2860     1.7310 h1         1 XK2       0.041700
     56 H72         -2.5790     0.0330     0.0020 h1         1 XK2       0.041700
     57 H21          4.1590     1.5390    -0.7780 ha         1 XK2       0.115500
     58 H22          4.5890     3.8390    -1.4630 ha         1 XK2       0.106500
     59 H24          3.8470     5.8760    -2.6690 ha         1 XK2       0.105000
     60 H25          2.1610     7.0170    -4.0140 ha         1 XK2       0.099000
     61 H26          0.0790     5.8760    -4.6580 ha         1 XK2       0.100000
     62 H27         -0.3520     3.5770    -3.9680 ha         1 XK2       0.106000
     63 H29          0.4530     1.5010    -2.8710 ha         1 XK2       0.123000
     64 H311         1.7770    -1.3630     2.8250 hc         1 XK2       0.046700
     65 H312         1.5240    -2.0580     1.2180 hc         1 XK2       0.046700
     66 H33          4.0060    -1.1560     3.7610 ha         1 XK2       0.109750
     67 H34          6.3130    -2.0290     3.7770 ha         1 XK2       0.103250
     68 H35          7.1620    -3.3020     1.8430 ha         1 XK2       0.103500
     69 H36          5.7030    -3.7060    -0.1030 ha         1 XK2       0.103250
     70 H37          3.3980    -2.8350    -0.1180 ha         1 XK2       0.109750
     71 H611        -2.0650    -1.8530     2.6020 hc         1 XK2       0.046700
     72 H612        -2.0430    -0.3260     3.4950 hc         1 XK2       0.046700
     73 H63         -1.0310    -0.1630     5.6520 ha         1 XK2       0.109750
     74 H64         -0.1710    -1.3380     7.6430 ha         1 XK2       0.103250
     75 H65          0.4190    -3.7280     7.5040 ha         1 XK2       0.103500
     76 H66          0.1440    -4.9440     5.3790 ha         1 XK2       0.103250
     77 H67         -0.7190    -3.7700     3.3890 ha         1 XK2       0.109750
     78 H71         -2.9270     1.4650     3.2630 ha         1 XK2       0.123000
     79 H73         -3.2420     3.3590     4.8400 ha         1 XK2       0.106000
     80 H74         -3.4180     5.7640     5.2040 ha         1 XK2       0.100000
     81 H75         -3.0330     7.3510     3.3640 ha         1 XK2       0.099000
     82 H76         -2.4640     6.5590     1.1290 ha         1 XK2       0.105000
     83 H78         -2.0210     4.6650    -0.4120 ha         1 XK2       0.106500
     84 H79         -1.8530     2.2600    -0.7780 ha         1 XK2       0.115500
@<TRIPOS>BOND
     1     1     2 2   
     2     1     3 1   
     3     1    11 1   
     4     3     4 1   
     5     3     5 1   
     6     4    13 1   
     7     4    47 1   
     8     4    48 1   
     9     5     6 1   
    10     5    23 1   
    11     5    49 1   
    12     6     7 1   
    13     6     8 1   
    14     6    50 1   
    15     7    51 1   
    16     8     9 1   
    17     8    10 1   
    18     8    52 1   
    19     9    53 1   
    20    10    11 1   
    21    10    30 1   
    22    10    54 1   
    23    11    12 1   
    24    12    37 1   
    25    12    55 1   
    26    12    56 1   
    27    13    14 ar  
    28    13    22 ar  
    29    14    15 ar  
    30    14    57 1   
    31    15    16 ar  
    32    15    58 1   
    33    16    17 ar  
    34    16    21 ar  
    35    17    18 ar  
    36    17    59 1   
    37    18    19 ar  
    38    18    60 1   
    39    19    20 ar  
    40    19    61 1   
    41    20    21 ar  
    42    20    62 1   
    43    21    22 ar  
    44    22    63 1   
    45    23    24 1   
    46    23    64 1   
    47    23    65 1   
    48    24    25 ar  
    49    24    29 ar  
    50    25    26 ar  
    51    25    66 1   
    52    26    27 ar  
    53    26    67 1   
    54    27    28 ar  
    55    27    68 1   
    56    28    29 ar  
    57    28    69 1   
    58    29    70 1   
    59    30    31 1   
    60    30    71 1   
    61    30    72 1   
    62    31    32 ar  
    63    31    36 ar  
    64    32    33 ar  
    65    32    73 1   
    66    33    34 ar  
    67    33    74 1   
    68    34    35 ar  
    69    34    75 1   
    70    35    36 ar  
    71    35    76 1   
    72    36    77 1   
    73    37    38 ar  
    74    37    46 ar  
    75    38    39 ar  
    76    38    78 1   
    77    39    40 ar  
    78    39    44 ar  
    79    40    41 ar  
    80    40    79 1   
    81    41    42 ar  
    82    41    80 1   
    83    42    43 ar  
    84    42    81 1   
    85    43    44 ar  
    86    43    82 1   
    87    44    45 ar  
    88    45    46 ar  
    89    45    83 1   
    90    46    84 1   
@<TRIPOS>SUBSTRUCTURE
     1 XK2         1 TEMP              0 ****  ****    0 ROOT
