@<TRIPOS>MOLECULE
XK3
   43    45     1     0     0
SMALL
bcc


@<TRIPOS>ATOM
      1 C01          0.0000     0.0000     0.0000 c3         1 XK3       0.006900
      2 C02          1.5310     0.0000     0.0000 c3         1 XK3       0.023900
      3 C03          2.0320     0.0000     1.4210 cc         1 XK3      -0.085300
      4 C04          2.4390     1.1490     2.0670 cc         1 XK3      -0.112000
      5 C05          2.8560     0.9740     3.3240 cd         1 XK3      -0.011100
      6 S06          2.7460    -0.7260     3.7580 ss         1 XK3      -0.286800
      7 C07          2.1150    -1.1230     2.1640 cd         1 XK3      -0.021600
      8 C08          1.7360    -2.4760     1.7090 ca         1 XK3       0.299500
      9 C09          0.9420    -3.2890     2.5200 ca         1 XK3       0.313900
     10 N10          0.6050    -4.4980     2.1110 nb         1 XK3      -0.609000
     11 C11          1.0200    -4.9410     0.9300 ca         1 XK3       0.387900
     12 N12          0.6630    -6.2140     0.5010 nv         1 XK3      -0.575500
     13 C13          1.8110    -4.1300     0.1200 ca         1 XK3       0.246300
     14 C14          2.2800    -4.6350    -1.2210 c3         1 XK3      -0.093000
     15 C15          1.6310    -3.8070    -2.3320 c3         1 XK3      -0.027900
     16 C16          2.1070    -4.3190    -3.6940 c3         1 XK3      -0.007900
     17 C17          3.6290    -4.1910    -3.7830 c3         1 XK3      -0.153700
     18 C18          4.0970    -4.6950    -5.1230 c          1 XK3       0.982600
     19 O19          3.2960    -5.1140    -5.9250 o          1 XK3      -0.900300
     20 O20          5.4050    -4.6790    -5.4270 o          1 XK3      -0.900300
     21 C21          4.2770    -5.0190    -2.6710 c3         1 XK3      -0.007900
     22 C22          3.8010    -4.5070    -1.3110 c3         1 XK3      -0.027900
     23 N23          2.1460    -2.9200     0.5210 nb         1 XK3      -0.492000
     24 H011        -0.3610    -0.7230     0.7220 hc         1 XK3       0.000700
     25 H012        -0.3610    -0.2640    -0.9870 hc         1 XK3       0.000700
     26 H013        -0.3610     0.9860     0.2650 hc         1 XK3       0.000700
     27 H021         1.8920     0.8850    -0.5110 hc         1 XK3       0.037700
     28 H022         1.8920    -0.8840    -0.5110 hc         1 XK3       0.037700
     29 H04          2.4210     2.1220     1.5900 ha         1 XK3       0.119000
     30 H05          3.2110     1.7620     3.9780 h4         1 XK3       0.142000
     31 H09          0.6030    -2.9290     3.4840 h4         1 XK3      -0.011900
     32 H121        -0.2880    -6.5180     0.5750 hn         1 XK3       0.276300
     33 H122         1.3660    -6.8450     0.1700 hn         1 XK3       0.276300
     34 H14          2.0000    -5.6750    -1.3380 hc         1 XK3       0.031700
     35 H151         1.9140    -2.7680    -2.2190 hc         1 XK3       0.007700
     36 H152         0.5540    -3.9020    -2.2690 hc         1 XK3       0.007700
     37 H221         4.2590    -5.0950    -0.5250 hc         1 XK3       0.007700
     38 H222         4.0820    -3.4660    -1.2000 hc         1 XK3       0.007700
     39 H161         1.8270    -5.3590    -3.8060 hc         1 XK3       0.021700
     40 H162         1.6500    -3.7300    -4.4790 hc         1 XK3       0.021700
     41 H17          3.9090    -3.1510    -3.6650 hc         1 XK3       0.022700
     42 H211         5.3540    -4.9250    -2.7340 hc         1 XK3       0.021700
     43 H212         3.9920    -6.0580    -2.7850 hc         1 XK3       0.021700
@<TRIPOS>BOND
     1     1     2 1   
     2     1    24 1   
     3     1    25 1   
     4     1    26 1   
     5     2     3 1   
     6     2    27 1   
     7     2    28 1   
     8     3     4 1   
     9     3     7 2   
    10     4     5 2   
    11     4    29 1   
    12     5     6 1   
    13     5    30 1   
    14     6     7 1   
    15     7     8 1   
    16     8     9 ar  
    17     8    23 ar  
    18     9    10 ar  
    19     9    31 1   
    20    10    11 ar  
    21    11    12 1   
    22    11    13 ar  
    23    12    32 1   
    24    12    33 1   
    25    13    14 1   
    26    13    23 ar  
    27    14    15 1   
    28    14    22 1   
    29    14    34 1   
    30    15    16 1   
    31    15    35 1   
    32    15    36 1   
    33    16    17 1   
    34    16    39 1   
    35    16    40 1   
    36    17    18 1   
    37    17    21 1   
    38    17    41 1   
    39    18    19 1   
    40    18    20 1   
    41    21    22 1   
    42    21    42 1   
    43    21    43 1   
    44    22    37 1   
    45    22    38 1   
@<TRIPOS>SUBSTRUCTURE
     1 XK3         1 TEMP              0 ****  ****    0 ROOT
