@<TRIPOS>MOLECULE
molecule
   43    45     1     0     0
SMALL
bcc


@<TRIPOS>ATOM
      1 C01          0.0000     0.0000     0.0000 c3         1 XK3      -0.086100
      2 C02          1.5310     0.0000     0.0000 c3         1 XK3      -0.029100
      3 C03          2.0320     0.0000     1.4210 cc         1 XK3      -0.076300
      4 C04          2.4390     1.1490     2.0670 cc         1 XK3      -0.147000
      5 C05          2.8560     0.9740     3.3240 cd         1 XK3      -0.082100
      6 S06          2.7460    -0.7260     3.7580 ss         1 XK3      -0.170800
      7 C07          2.1150    -1.1230     2.1640 cd         1 XK3      -0.071600
      8 C08          1.7360    -2.4760     1.7090 ca         1 XK3       0.342500
      9 C09          0.9420    -3.2890     2.5200 ca         1 XK3       0.319900
     10 N10          0.6050    -4.4980     2.1110 nb         1 XK3      -0.712000
     11 C11          1.0200    -4.9410     0.9300 ca         1 XK3       0.562900
     12 N12          0.6630    -6.2140     0.5010 nv         1 XK3      -1.038500
     13 C13          1.8110    -4.1300     0.1200 ca         1 XK3       0.305300
     14 C14          2.2800    -4.6350    -1.2210 c3         1 XK3      -0.109000
     15 C15          1.6310    -3.8070    -2.3320 c3         1 XK3      -0.075900
     16 C16          2.1070    -4.3190    -3.6940 c3         1 XK3      -0.057900
     17 C17          3.6290    -4.1910    -3.7830 c3         1 XK3      -0.169700
     18 C18          4.0970    -4.6950    -5.1230 c          1 XK3       0.893600
     19 O19          3.2960    -5.1140    -5.9250 o          1 XK3      -0.851800
     20 O20          5.4050    -4.6790    -5.4270 o          1 XK3      -0.851800
     21 C21          4.2770    -5.0190    -2.6710 c3         1 XK3      -0.057900
     22 C22          3.8010    -4.5070    -1.3110 c3         1 XK3      -0.075900
     23 N23          2.1460    -2.9200     0.5210 nb         1 XK3      -0.621000
     24 H011        -0.3610    -0.7230     0.7220 hc         1 XK3       0.032033
     25 H012        -0.3610    -0.2640    -0.9870 hc         1 XK3       0.032033
     26 H013        -0.3610     0.9860     0.2650 hc         1 XK3       0.032033
     27 H021         1.8920     0.8850    -0.5110 hc         1 XK3       0.066700
     28 H022         1.8920    -0.8840    -0.5110 hc         1 XK3       0.066700
     29 H04          2.4210     2.1220     1.5900 ha         1 XK3       0.145000
     30 H05          3.2110     1.7620     3.9780 h4         1 XK3       0.163000
     31 H09          0.6030    -2.9290     3.4840 h4         1 XK3       0.024100
     32 H121        -0.2880    -6.5180     0.5750 hn         1 XK3       0.439300
     33 H122         1.3660    -6.8450     0.1700 hn         1 XK3       0.439300
     34 H14          2.0000    -5.6750    -1.3380 hc         1 XK3       0.055700
     35 H151         1.9140    -2.7680    -2.2190 hc         1 XK3       0.033450
     36 H152         0.5540    -3.9020    -2.2690 hc         1 XK3       0.033450
     37 H221         4.2590    -5.0950    -0.5250 hc         1 XK3       0.033450
     38 H222         4.0820    -3.4660    -1.2000 hc         1 XK3       0.033450
     39 H161         1.8270    -5.3590    -3.8060 hc         1 XK3       0.047200
     40 H162         1.6500    -3.7300    -4.4790 hc         1 XK3       0.047200
     41 H17          3.9090    -3.1510    -3.6650 hc         1 XK3       0.042700
     42 H211         5.3540    -4.9250    -2.7340 hc         1 XK3       0.047200
     43 H212         3.9920    -6.0580    -2.7850 hc         1 XK3       0.047200
@<TRIPOS>BOND
     1     1     2 1
     2     2     3 1
     3     3     4 1
     4     3     7 2
     5     4     5 2
     6     5     6 1
     7     6     7 1
     8     7     8 1
     9     8     9 ar
    10     8    23 ar
    11     9    10 ar
    12    10    11 ar
    13    11    12 1
    14    11    13 ar
    15    13    14 1
    16    13    23 ar
    17    14    15 1
    18    14    22 1
    19    15    16 1
    20    16    17 1
    21    17    18 1
    22    17    21 1
    23    18    19 1
    24    18    20 1
    25    21    22 1
    26     1    24 1
    27     1    25 1
    28     1    26 1
    29     2    27 1
    30     2    28 1
    31     4    29 1
    32     5    30 1
    33     9    31 1
    34    12    32 1
    35    12    33 1
    36    14    34 1
    37    15    35 1
    38    15    36 1
    39    22    37 1
    40    22    38 1
    41    16    39 1
    42    16    40 1
    43    17    41 1
    44    21    42 1
    45    21    43 1
@<TRIPOS>SUBSTRUCTURE
     1 XK3         1 TEMP              0 ****  ****    0 ROOT
