@<TRIPOS>MOLECULE
molecule
   46    48     1     0     0
SMALL
bcc


@<TRIPOS>ATOM
      1 O3           0.0000     0.0000     0.0000 o          1 XK9      -0.218500
      2 N7           1.2180     0.0000     0.0000 no         1 XK9       0.302200
      3 O2           1.8280     0.0000     1.0540 o          1 XK9      -0.218500
      4 C3           1.9570    -0.0070    -1.2830 ca         1 XK9      -0.179200
      5 C2           1.2700    -0.0140    -2.4760 ca         1 XK9      -0.025000
      6 C4           3.3490    -0.0020    -1.2850 ca         1 XK9       0.012800
      7 N1           4.2930     0.0090    -0.2850 na         1 XK9      -0.152400
      8 C8           5.5490     0.0100    -0.8580 cc         1 XK9      -0.133300
      9 C7           5.4220    -0.0010    -2.2110 cd         1 XK9      -0.096200
     10 C5           4.0390    -0.0080    -2.5140 ca         1 XK9      -0.129800
     11 C6           3.3170    -0.0180    -3.7140 ca         1 XK9      -0.018000
     12 C1           1.9520    -0.0200    -3.6860 ca         1 XK9      -0.176000
     13 C9           6.8220     0.0210    -0.1230 c          1 XK9       0.695300
     14 O1           7.8760     0.0200    -0.7290 o          1 XK9      -0.571100
     15 N2           6.8210     0.0310     1.2250 ns         1 XK9      -0.472100
     16 C10          8.0250    -0.0700     1.9250 ca         1 XK9       0.065600
     17 C15          8.1790     0.5910     3.1390 ca         1 XK9      -0.150500
     18 C14          9.3650     0.4950     3.8330 ca         1 XK9      -0.082000
     19 C13         10.4150    -0.2690     3.3150 ca         1 XK9      -0.133900
     20 C12         10.2560    -0.9340     2.0950 ca         1 XK9      -0.082000
     21 C11          9.0640    -0.8360     1.4100 ca         1 XK9      -0.150500
     22 C16         11.6860    -0.3760     4.0530 ce         1 XK9       0.377900
     23 C17         12.8160    -1.2010     3.4940 c3         1 XK9      -0.175400
     24 N3          11.8320     0.2420     5.1860 n2         1 XK9      -0.342400
     25 N4          13.0400     0.1410     5.8880 nu         1 XK9      -0.590300
     26 C18         13.1950     0.7950     7.0880 c2         1 XK9       1.014100
     27 N6          12.2180     1.5090     7.5720 n2         1 XK9      -1.104100
     28 N5          14.3820     0.6970     7.7780 nu         1 XK9      -0.712700
     29 OBC         14.5410     1.3710     9.0130 oh         1 XK9      -0.291300
     30 H2           0.1870    -0.0150    -2.4700 ha         1 XK9       0.168000
     31 H1           1.3960    -0.0250    -4.6160 ha         1 XK9       0.150000
     32 HA           4.1000     0.0160     0.6970 hn         1 XK9       0.326700
     33 H7           6.2330    -0.0030    -2.9290 ha         1 XK9       0.180000
     34 H6           3.8400    -0.0230    -4.6630 ha         1 XK9       0.146000
     35 HB           5.9720     0.2220     1.7200 hn         1 XK9       0.323500
     36 H15          7.3650     1.1840     3.5390 ha         1 XK9       0.148500
     37 H11          8.9400    -1.3510     0.4650 ha         1 XK9       0.148500
     38 H14          9.4850     1.0110     4.7780 ha         1 XK9       0.152500
     39 H12         11.0670    -1.5290     1.6920 ha         1 XK9       0.152500
     40 H171        13.7160    -0.6000     3.4530 hc         1 XK9       0.053033
     41 H172        12.9840    -2.0620     4.1300 hc         1 XK9       0.053033
     42 H173        12.5590    -1.5350     2.4960 hc         1 XK9       0.053033
     43 H4          13.7900    -0.4090     5.5180 hn         1 XK9       0.396800
     44 H5          15.1350     0.1540     7.4030 hn         1 XK9       0.414800
     45 HBC         15.3620     1.1200     9.4040 ho         1 XK9       0.397000
     46 H6A         12.1440     2.4800     7.3400 hn         1 XK9       0.476400
@<TRIPOS>BOND
     1     1     2 1
     2     2     3 1
     3     2     4 1
     4     4     5 ar
     5     4     6 ar
     6     5    12 ar
     7     6     7 1
     8     6    10 ar
     9     7     8 1
    10     8     9 2
    11     8    13 1
    12     9    10 1
    13    10    11 ar
    14    11    12 ar
    15    13    14 2
    16    13    15 1
    17    15    16 1
    18    16    17 ar
    19    16    21 ar
    20    17    18 ar
    21    18    19 ar
    22    19    20 ar
    23    19    22 1
    24    20    21 ar
    25    22    23 1
    26    22    24 2
    27    24    25 1
    28    25    26 1
    29    26    27 2
    30    26    28 1
    31    28    29 1
    32     5    30 1
    33    12    31 1
    34     7    32 1
    35     9    33 1
    36    11    34 1
    37    15    35 1
    38    17    36 1
    39    21    37 1
    40    18    38 1
    41    20    39 1
    42    23    40 1
    43    23    41 1
    44    23    42 1
    45    25    43 1
    46    28    44 1
    47    29    45 1
    48    27    46 1
@<TRIPOS>SUBSTRUCTURE
     1 XK9         1 TEMP              0 ****  ****    0 ROOT
