@<TRIPOS>MOLECULE
XK9
   46    48     1     0     0
SMALL
bcc


@<TRIPOS>ATOM
      1 O3           0.0000     0.0000     0.0000 o          1 XK9      -0.464500
      2 N7           1.2180     0.0000     0.0000 no         1 XK9       1.060200
      3 O2           1.8280     0.0000     1.0540 o          1 XK9      -0.464500
      4 C3           1.9570    -0.0070    -1.2830 ca         1 XK9      -0.466200
      5 C2           1.2700    -0.0140    -2.4760 ca         1 XK9       0.043000
      6 C4           3.3490    -0.0020    -1.2850 ca         1 XK9      -0.157200
      7 N1           4.2930     0.0090    -0.2850 na         1 XK9       0.388600
      8 C8           5.5490     0.0100    -0.8580 cc         1 XK9      -0.341300
      9 C7           5.4220    -0.0010    -2.2110 cd         1 XK9      -0.048200
     10 C5           4.0390    -0.0080    -2.5140 ca         1 XK9      -0.150800
     11 C6           3.3170    -0.0180    -3.7140 ca         1 XK9       0.045000
     12 C1           1.9520    -0.0200    -3.6860 ca         1 XK9      -0.173000
     13 C9           6.8220     0.0210    -0.1230 c          1 XK9       0.611300
     14 O1           7.8760     0.0200    -0.7290 o          1 XK9      -0.617100
     15 N2           6.8210     0.0310     1.2250 ns         1 XK9      -0.031100
     16 C10          8.0250    -0.0700     1.9250 ca         1 XK9      -0.089400
     17 C15          8.1790     0.5910     3.1390 ca         1 XK9      -0.121500
     18 C14          9.3650     0.4950     3.8330 ca         1 XK9      -0.064500
     19 C13         10.4150    -0.2690     3.3150 ca         1 XK9      -0.126900
     20 C12         10.2560    -0.9340     2.0950 ca         1 XK9      -0.064500
     21 C11          9.0640    -0.8360     1.4100 ca         1 XK9      -0.121500
     22 C16         11.6860    -0.3760     4.0530 ce         1 XK9       0.341900
     23 C17         12.8160    -1.2010     3.4940 c3         1 XK9      -0.065400
     24 N3          11.8320     0.2420     5.1860 n2         1 XK9      -0.409400
     25 N4          13.0400     0.1410     5.8880 nu         1 XK9      -0.180300
     26 C18         13.1950     0.7950     7.0880 c2         1 XK9       0.547100
     27 N6          12.2180     1.5090     7.5720 n2         1 XK9      -0.771100
     28 N5          14.3820     0.6970     7.7780 nu         1 XK9      -0.337700
     29 OBC         14.5410     1.3710     9.0130 oh         1 XK9      -0.408300
     30 H2           0.1870    -0.0150    -2.4700 ha         1 XK9       0.129000
     31 H1           1.3960    -0.0250    -4.6160 ha         1 XK9       0.118000
     32 HA           4.1000     0.0160     0.6970 hn         1 XK9       0.148700
     33 H7           6.2330    -0.0030    -2.9290 ha         1 XK9       0.146000
     34 H6           3.8400    -0.0230    -4.6630 ha         1 XK9       0.106000
     35 HB           5.9710     0.2190     1.7200 hn         1 XK9       0.163500
     36 H15          7.3650     1.1840     3.5390 ha         1 XK9       0.122000
     37 H11          8.9400    -1.3510     0.4650 ha         1 XK9       0.122000
     38 H14          9.4850     1.0110     4.7780 ha         1 XK9       0.124500
     39 H12         11.0670    -1.5290     1.6920 ha         1 XK9       0.124500
     40 H171        12.4730    -1.7350     2.6160 hc         1 XK9       0.017700
     41 H172        13.1490    -1.9110     4.2410 hc         1 XK9       0.017700
     42 H173        13.6380    -0.5510     3.2220 hc         1 XK9       0.017700
     43 H4          13.7910    -0.4060     5.5160 hn         1 XK9       0.269800
     44 H5          15.1220     0.1250     7.4210 hn         1 XK9       0.269800
     45 HBC         15.4030     1.1990     9.3560 ho         1 XK9       0.404000
     46 H6A         12.3300     1.9850     8.4460 hn         1 XK9       0.338400
@<TRIPOS>BOND
     1     1     2 1   
     2     2     3 1   
     3     2     4 1   
     4     4     5 ar  
     5     4     6 ar  
     6     5    12 ar  
     7     5    30 1   
     8     6     7 1   
     9     6    10 ar  
    10     7     8 1   
    11     7    32 1   
    12     8     9 2   
    13     8    13 1   
    14     9    10 1   
    15     9    33 1   
    16    10    11 ar  
    17    11    12 ar  
    18    11    34 1   
    19    12    31 1   
    20    13    14 2   
    21    13    15 1   
    22    15    16 1   
    23    15    35 1   
    24    16    17 ar  
    25    16    21 ar  
    26    17    18 ar  
    27    17    36 1   
    28    18    19 ar  
    29    18    38 1   
    30    19    20 ar  
    31    19    22 1   
    32    20    21 ar  
    33    20    39 1   
    34    21    37 1   
    35    22    23 1   
    36    22    24 2   
    37    23    40 1   
    38    23    41 1   
    39    23    42 1   
    40    24    25 1   
    41    25    26 1   
    42    25    43 1   
    43    26    27 2   
    44    26    28 1   
    45    27    46 1   
    46    28    29 1   
    47    28    44 1   
    48    29    45 1   
@<TRIPOS>SUBSTRUCTURE
     1 XK9         1 TEMP              0 ****  ****    0 ROOT
