@<TRIPOS>MOLECULE
XKA
   50    53     1     0     0
SMALL
bcc


@<TRIPOS>ATOM
      1 N1           0.0000     0.0000     0.0000 nu         1 XKA      -0.488900
      2 C4          -3.2830    -1.0550    -0.4270 c3         1 XKA       0.145100
      3 C5          -2.0150    -1.9020    -0.5680 c3         1 XKA       0.151100
      4 C6          -2.3950    -3.3250    -0.9780 c3         1 XKA       0.228400
      5 C10          4.8660    -0.0320     8.9220 ca         1 XKA       0.296900
      6 C13          1.3780     0.0000     0.0000 cc         1 XKA       0.598300
      7 C15          3.4170    -0.0010    -0.9010 cd         1 XKA       0.507200
      8 C20          5.4510     0.0050     2.3470 cc         1 XKA      -0.219000
      9 C1          -0.7320     0.0000    -1.2690 c3         1 XKA       0.325300
     10 C2          -1.9490     0.9230    -1.1560 c3         1 XKA       0.128100
     11 O2          -2.6340     0.9650    -2.4100 oh         1 XKA      -0.549800
     12 C3          -2.8910     0.3840    -0.0750 c3         1 XKA       0.158100
     13 O3          -4.0640     1.1970    -0.0150 oh         1 XKA      -0.566800
     14 O5          -1.1690    -1.3280    -1.5670 os         1 XKA      -0.361600
     15 O6          -1.2240    -4.1450    -0.9960 oh         1 XKA      -0.582800
     16 S14          2.3520     0.0000     1.4050 ss         1 XKA      -0.289300
     17 C16          3.8070    -0.0000     0.4120 cc         1 XKA      -0.278000
     18 N17          2.1200    -0.0060    -1.0710 nd         1 XKA      -0.680000
     19 C18          5.1860     0.0050     0.9020 c          1 XKA       0.746300
     20 O19          6.1130     0.0090     0.1120 o          1 XKA      -0.567100
     21 N02          6.6460     0.0080     4.2460 nd         1 XKA      -0.572000
     22 S02          4.2400    -0.0100     3.6260 ss         1 XKA      -0.211300
     23 N03          3.9940    -0.0270     6.7460 nb         1 XKA      -0.532000
     24 N04          6.1040    -0.0210     8.4550 nb         1 XKA      -0.552000
     25 C06          6.6850     0.0090     2.9410 cd         1 XKA       0.408600
     26 C07          5.4710    -0.0070     4.8100 cc         1 XKA       0.404400
     27 C08          5.2370    -0.0170     6.2690 ca         1 XKA       0.217000
     28 C09          3.7910    -0.0340     8.0500 ca         1 XKA       0.282900
     29 C11          6.3190    -0.0140     7.1520 ca         1 XKA       0.332900
     30 C12          7.9720     0.0150     2.1580 c3         1 XKA      -0.025400
     31 H1          -0.5000     0.0500     0.8660 hn         1 XKA       0.306800
     32 H2          -3.8260    -1.0610    -1.3640 h1         1 XKA       0.042700
     33 H3          -1.4900    -1.9220     0.3790 h1         1 XKA       0.022700
     34 H4          -3.1060    -3.7280    -0.2670 h1         1 XKA      -0.001300
     35 H5          -2.8410    -3.3100    -1.9650 h1         1 XKA      -0.001300
     36 H7           4.1200    -0.0030    -1.7250 h4         1 XKA       0.012100
     37 H8          -0.0860     0.3530    -2.0640 h2         1 XKA       0.085700
     38 H9          -1.6210     1.9190    -0.8840 h1         1 XKA       0.011700
     39 H10         -2.4350     1.7740    -2.8500 ho         1 XKA       0.393000
     40 H11         -2.3850     0.3960     0.8830 h1         1 XKA       0.008700
     41 H12         -4.0550     1.7040     0.7800 ho         1 XKA       0.390000
     42 H14         -1.4700    -5.0420    -1.1450 ho         1 XKA       0.389000
     43 H15          2.7800    -0.0420     8.4390 h4         1 XKA      -0.007900
     44 H16          7.3330    -0.0060     6.7700 h4         1 XKA       0.011100
     45 H17          8.0120     0.9000     1.5340 hc         1 XKA       0.024700
     46 H18          8.8110     0.0190     2.8430 hc         1 XKA       0.024700
     47 H19          8.0190    -0.8690     1.5340 hc         1 XKA       0.024700
     48 O4          -4.1040    -1.5940     0.6110 oh         1 XKA      -0.585800
     49 H6           4.6940    -0.0380     9.9920 h4         1 XKA      -0.008900
     50 H13         -4.9980    -1.6330     0.3160 ho         1 XKA       0.402000
@<TRIPOS>BOND
     1     1     6 1   
     2     1     9 1   
     3     1    31 1   
     4     2     3 1   
     5     2    12 1   
     6     2    32 1   
     7     2    48 1   
     8     3     4 1   
     9     3    14 1   
    10     3    33 1   
    11     4    15 1   
    12     4    34 1   
    13     4    35 1   
    14     5    24 ar  
    15     5    28 ar  
    16     5    49 1   
    17     6    16 1   
    18     6    18 2   
    19     7    17 2   
    20     7    18 1   
    21     7    36 1   
    22     8    19 1   
    23     8    22 1   
    24     8    25 2   
    25     9    10 1   
    26     9    14 1   
    27     9    37 1   
    28    10    11 1   
    29    10    12 1   
    30    10    38 1   
    31    11    39 1   
    32    12    13 1   
    33    12    40 1   
    34    13    41 1   
    35    15    42 1   
    36    16    17 1   
    37    17    19 1   
    38    19    20 2   
    39    21    25 1   
    40    21    26 2   
    41    22    26 1   
    42    23    27 ar  
    43    23    28 ar  
    44    24    29 ar  
    45    25    30 1   
    46    26    27 1   
    47    27    29 ar  
    48    28    43 1   
    49    29    44 1   
    50    30    45 1   
    51    30    46 1   
    52    30    47 1   
    53    48    50 1   
@<TRIPOS>SUBSTRUCTURE
     1 XKA         1 TEMP              0 ****  ****    0 ROOT
