@<TRIPOS>MOLECULE
XKL
   44    46     1     0     0
SMALL
bcc


@<TRIPOS>ATOM
      1 O28         0.7290    1.4020    0.2260 o         1 XKL     -0.398100
      2 C24         1.4900    0.4950   -0.0670 c         1 XKL      0.499600
      3 N25         2.1040   -0.2930    1.0770 n4        1 XKL     -0.674800
      4 C26         1.6650    0.1800    2.4260 c3        1 XKL      0.108800
      5 C27         2.2880   -0.6200    3.5490 c3        1 XKL     -0.137100
      6 C22         1.8990    0.0560   -1.3910 cc        1 XKL      0.195800
      7 N21         2.7600   -0.9680   -1.6660 nd        1 XKL     -0.343300
      8 O20         2.8900   -1.0740   -2.9500 os        1 XKL     -0.032100
      9 C23         1.4440    0.6480   -2.6340 cc        1 XKL     -0.299600
     10 C19         2.0940   -0.0940   -3.6200 cd        1 XKL      0.407200
     11 C5          2.1190   -0.0740   -5.0460 ca        1 XKL     -0.281500
     12 C4          1.3890    0.9000   -5.7720 ca        1 XKL      0.248100
     13 O7          0.6690    1.8040   -5.0370 oh        1 XKL     -0.497100
     14 C3          1.3970    0.9380   -7.1700 ca        1 XKL     -0.339000
     15 C2          2.1530   -0.0130   -7.8710 ca        1 XKL      0.251100
     16 O8          2.2180   -0.0460   -9.2320 oh        1 XKL     -0.464100
     17 C6          2.8700   -1.0150   -5.8030 ca        1 XKL      0.233100
     18 C1          2.8960   -0.9970   -7.1930 ca        1 XKL     -0.264000
     19 O9          3.5990   -1.9100   -5.0420 os        1 XKL     -0.241200
     20 C10         4.1430   -3.0200   -5.6960 ca        1 XKL      0.113100
     21 C15         5.5140   -3.2390   -5.5120 ca        1 XKL     -0.147000
     22 C14         6.0850   -4.4060   -6.0130 ca        1 XKL     -0.051000
     23 C13         5.2780   -5.3310   -6.6950 ca        1 XKL     -0.176200
     24 N16         5.8890   -6.5810   -7.2280 no        1 XKL      0.314200
     25 O18         7.0610   -6.7710   -7.0480 o         1 XKL     -0.192000
     26 O17         5.1890   -7.3580   -7.8170 o         1 XKL     -0.192000
     27 C12         3.9050   -5.1000   -6.8840 ca        1 XKL     -0.051000
     28 C11         3.3340   -3.9350   -6.3800 ca        1 XKL     -0.147000
     29 H25         1.8510   -1.2830    0.9640 hn        1 XKL      0.467800
     30 H261        0.5390    0.1050    2.4620 hx        1 XKL      0.113700
     31 H262        1.9440    1.2700    2.5110 hx        1 XKL      0.113700
     32 H271        1.9090   -0.2040    4.5180 hc        1 XKL      0.080700
     33 H272        2.0020   -1.6990    3.4990 hc        1 XKL      0.080700
     34 H273        3.4020   -0.5380    3.5490 hc        1 XKL      0.080700
     35 H23         0.7550    1.4820   -2.7560 ha        1 XKL      0.219000
     36 H7          0.2240    2.4170   -5.6460 ho        1 XKL      0.448000
     37 H3          0.8220    1.7030   -7.7090 ha        1 XKL      0.159000
     38 H8          1.6810    0.6790   -9.5930 ho        1 XKL      0.443000
     39 H1          3.4860   -1.7260   -7.7700 ha        1 XKL      0.185000
     40 H15         6.1250   -2.5010   -4.9700 ha        1 XKL      0.165000
     41 H11         2.2600   -3.7360   -6.5170 ha        1 XKL      0.165000
     42 H14         7.1640   -4.6010   -5.8770 ha        1 XKL      0.184500
     43 H12         3.2850   -5.8380   -7.4240 ha        1 XKL      0.184500
     44 H252        3.1270   -0.2250    1.0080 hn        1 XKL      0.467800
@<TRIPOS>BOND
     1    1    2 2   
     2    2    3 1   
     3    2    6 1   
     4    3    4 1   
     5    3   29 1   
     6    3   44 1   
     7    4    5 1   
     8    4   30 1   
     9    4   31 1   
    10    5   32 1   
    11    5   33 1   
    12    5   34 1   
    13    6    7 2   
    14    6    9 1   
    15    7    8 1   
    16    8   10 1   
    17    9   10 2   
    18    9   35 1   
    19   10   11 1   
    20   11   12 ar  
    21   11   17 ar  
    22   12   13 1   
    23   12   14 ar  
    24   13   36 1   
    25   14   15 ar  
    26   14   37 1   
    27   15   16 1   
    28   15   18 ar  
    29   16   38 1   
    30   17   18 ar  
    31   17   19 1   
    32   18   39 1   
    33   19   20 1   
    34   20   21 ar  
    35   20   28 ar  
    36   21   22 ar  
    37   21   40 1   
    38   22   23 ar  
    39   22   42 1   
    40   23   24 1   
    41   23   27 ar  
    42   24   25 1   
    43   24   26 1   
    44   27   28 ar  
    45   27   43 1   
    46   28   41 1   
@<TRIPOS>SUBSTRUCTURE
     1 XKL         1 TEMP              0 ****  ****    0 ROOT
