@<TRIPOS>MOLECULE
molecule
    9     8     1     0     0
SMALL
bcc


@<TRIPOS>ATOM
      1 CA           0.0000     0.0000     0.0000 c3         1 XL1      -0.077100
      2 CB           1.5300     0.0000     0.0000 c3         1 XL1       0.043700
      3 SG           2.1360     0.0000     1.7090 sh         1 XL1      -0.435900
      4 HA1         -0.3610    -0.0000    -1.0210 hc         1 XL1       0.048033
      5 HA2         -0.3610     0.8850     0.5110 hc         1 XL1       0.048033
      6 HA3         -0.3610    -0.8850     0.5110 hc         1 XL1       0.048033
      7 HB1          1.8910    -0.8840    -0.5110 h1         1 XL1       0.053700
      8 HB2          1.8910     0.8840    -0.5110 h1         1 XL1       0.053700
      9 HSG          3.4630    -0.0000     1.7080 hs         1 XL1       0.216800
@<TRIPOS>BOND
     1     1     2 1
     2     1     4 1
     3     1     5 1
     4     1     6 1
     5     2     3 1
     6     2     7 1
     7     2     8 1
     8     3     9 1
@<TRIPOS>SUBSTRUCTURE
     1 XL1         1 TEMP              0 ****  ****    0 ROOT
