@<TRIPOS>MOLECULE
XL1
    9     8     1     0     0
SMALL
bcc


@<TRIPOS>ATOM
      1 CA          0.0410    0.0000    0.0210 c3        1 XL1     -0.088100
      2 CB          1.5410   -0.0000    0.0320 c3        1 XL1      0.012700
      3 SG          2.0580    0.0000    1.7290 sh        1 XL1     -0.383900
      4 HA1        -0.3610   -0.9060    0.5380 hc        1 XL1      0.048033
      5 HA2        -0.3600    0.9070    0.5380 hc        1 XL1      0.048033
      6 HA3        -0.3330   -0.0000   -1.0320 hc        1 XL1      0.048033
      7 HB1         1.9390    0.9020   -0.4910 h1        1 XL1      0.057700
      8 HB2         1.9390   -0.9030   -0.4910 h1        1 XL1      0.057700
      9 HSG         3.3660    0.0000    1.5510 hs        1 XL1      0.198800
@<TRIPOS>BOND
     1    1    2 1   
     2    1    4 1   
     3    1    5 1   
     4    1    6 1   
     5    2    3 1   
     6    2    7 1   
     7    2    8 1   
     8    3    9 1   
@<TRIPOS>SUBSTRUCTURE
     1 XL1         1 TEMP              0 ****  ****    0 ROOT
