@<TRIPOS>MOLECULE
XL2
   45    47     1     0     0
SMALL
bcc


@<TRIPOS>ATOM
      1 C01          0.0000     0.0000     0.0000 ca         1 XL2      -0.087000
      2 C02          1.3820     0.0000     0.0000 ca         1 XL2       0.085900
      3 C03          2.0770     0.0000     1.1970 ca         1 XL2       0.037000
      4 C04          1.3970    -0.0000     2.4090 ca         1 XL2      -0.067100
      5 C05         -0.0030    -0.0000     2.4380 ca         1 XL2       0.240400
      6 C06         -0.7040     0.0060     1.1990 ca         1 XL2      -0.220600
      7 S07          1.9850     0.0000     4.0690 ss         1 XL2      -0.145100
      8 C08          0.3330    -0.0010     4.6670 cc         1 XL2       0.519100
      9 N09         -0.4990     0.0000     3.6800 nd         1 XL2      -0.598100
     10 C10         -2.1760     0.0060     1.1870 c          1 XL2       0.341700
     11 O11         -2.7930     0.0010     2.2360 o          1 XL2      -0.412100
     12 N12         -2.8410     0.0110     0.0140 nz         1 XL2       0.197600
     13 F13          2.0570     0.0010    -1.1710 f          1 XL2      -0.105900
     14 N14         -0.0240    -0.0010     6.0000 nu         1 XL2      -0.132600
     15 C15          0.9560     0.1380     6.9860 ca         1 XL2      -0.086400
     16 C16          2.0210     1.0080     6.7910 ca         1 XL2      -0.111500
     17 C17          2.9880     1.1430     7.7680 ca         1 XL2      -0.059000
     18 C18          2.8970     0.4140     8.9390 ca         1 XL2      -0.067300
     19 C19          1.8380    -0.4550     9.1360 ca         1 XL2      -0.059000
     20 C20          0.8640    -0.5900     8.1660 ca         1 XL2      -0.111500
     21 C21          3.9580     0.5580    10.0000 c3         1 XL2       0.179800
     22 C22          5.2400    -0.1380     9.5370 c3         1 XL2      -0.001100
     23 N23          4.2300     1.9830    10.2290 n3         1 XL2      -0.547600
     24 C24          3.0090     2.6940    10.6300 c3         1 XL2       0.177100
     25 C25          5.2950     2.1620    11.2240 c3         1 XL2       0.177100
     26 H1          -0.5380    -0.0000    -0.9400 ha         1 XL2       0.093000
     27 H2           3.1600     0.0000     1.1890 ha         1 XL2       0.139000
     28 H3          -2.5910     0.8270    -0.5070 hn         1 XL2       0.242467
     29 H4          -3.8260     0.0150     0.1890 hn         1 XL2       0.242467
     30 H5          -0.9870    -0.0890     6.2590 hn         1 XL2       0.299800
     31 H6           2.0930     1.5800     5.8740 ha         1 XL2       0.121000
     32 H7           3.8190     1.8210     7.6160 ha         1 XL2       0.126000
     33 H8           1.7690    -1.0230    10.0560 ha         1 XL2       0.126000
     34 H9           0.0350    -1.2690     8.3210 ha         1 XL2       0.121000
     35 H10          3.6130     0.1030    10.9210 h1         1 XL2       0.018700
     36 H11          4.9860    -1.0460     9.0050 hc         1 XL2       0.014367
     37 H12          5.8490    -0.3820    10.3990 hc         1 XL2       0.014367
     38 H13          5.7920     0.5230     8.8800 hc         1 XL2       0.014367
     39 H15          3.2740     3.6470    11.0710 h1         1 XL2       0.006200
     40 H16          2.4670     2.0990    11.3560 h1         1 XL2       0.006200
     41 H17          2.3850     2.8600     9.7610 h1         1 XL2       0.006200
     42 H18          5.3240     3.1980    11.5410 h1         1 XL2       0.006200
     43 H19          6.2480     1.8920    10.7860 h1         1 XL2       0.006200
     44 H20          5.0990     1.5280    12.0810 h1         1 XL2       0.006200
     45 H123        -2.5920    -0.8030    -0.5130 hn         1 XL2       0.242467
@<TRIPOS>BOND
     1     1     2 ar  
     2     1     6 ar  
     3     1    26 1   
     4     2     3 ar  
     5     2    13 1   
     6     3     4 ar  
     7     3    27 1   
     8     4     5 ar  
     9     4     7 1   
    10     5     6 ar  
    11     5     9 1   
    12     6    10 1   
    13     7     8 1   
    14     8     9 2   
    15     8    14 1   
    16    10    11 2   
    17    10    12 1   
    18    12    28 1   
    19    12    29 1   
    20    12    45 1   
    21    14    15 1   
    22    14    30 1   
    23    15    16 ar  
    24    15    20 ar  
    25    16    17 ar  
    26    16    31 1   
    27    17    18 ar  
    28    17    32 1   
    29    18    19 ar  
    30    18    21 1   
    31    19    20 ar  
    32    19    33 1   
    33    20    34 1   
    34    21    22 1   
    35    21    23 1   
    36    21    35 1   
    37    22    36 1   
    38    22    37 1   
    39    22    38 1   
    40    23    24 1   
    41    23    25 1   
    42    24    39 1   
    43    24    40 1   
    44    24    41 1   
    45    25    42 1   
    46    25    43 1   
    47    25    44 1   
@<TRIPOS>SUBSTRUCTURE
     1 XL2         1 TEMP              0 ****  ****    0 ROOT
