@<TRIPOS>MOLECULE
XL3
   12    11     1     0     0
SMALL
bcc


@<TRIPOS>ATOM
      1 CA          0.0330   -0.0000    0.0130 c3        1 XL3     -0.092100
      2 CB          1.5400   -0.0000    0.0320 c3        1 XL3     -0.074400
      3 CC          2.0660    0.0000    1.4460 c3        1 XL3      0.011700
      4 SG          3.8360   -0.0010    1.3480 sh        1 XL3     -0.382900
      5 HA         -0.3370    0.0000   -1.0410 hc        1 XL3      0.036367
      6 HAA        -0.3700   -0.9060    0.5280 hc        1 XL3      0.036367
      7 HAB        -0.3700    0.9050    0.5280 hc        1 XL3      0.036367
      8 HB          1.9250    0.9040   -0.5120 hc        1 XL3      0.056700
      9 HBA         1.9250   -0.9040   -0.5120 hc        1 XL3      0.056700
     10 HC          1.7070   -0.9020    1.9960 h1        1 XL3      0.058700
     11 HCA         1.7080    0.9030    1.9960 h1        1 XL3      0.058700
     12 HSG         4.1160    0.0000    2.6390 hs        1 XL3      0.199800
@<TRIPOS>BOND
     1    1    2 1   
     2    1    5 1   
     3    1    6 1   
     4    1    7 1   
     5    2    3 1   
     6    2    8 1   
     7    2    9 1   
     8    3    4 1   
     9    3   10 1   
    10    3   11 1   
    11    4   12 1   
@<TRIPOS>SUBSTRUCTURE
     1 XL3         1 TEMP              0 ****  ****    0 ROOT
