@<TRIPOS>MOLECULE
molecule
   12    11     1     0     0
SMALL
bcc


@<TRIPOS>ATOM
      1 CA           0.0000     0.0000     0.0000 c3         1 XL3      -0.090100
      2 CB           1.5300     0.0000     0.0000 c3         1 XL3      -0.068400
      3 CC           2.0400     0.0000     1.4420 c3         1 XL3       0.046700
      4 SG           3.8550    -0.0000     1.4420 sh         1 XL3      -0.437900
      5 HA          -0.3610     0.0000    -1.0210 hc         1 XL3       0.036700
      6 HAA         -0.3610     0.8850     0.5110 hc         1 XL3       0.036700
      7 HAB         -0.3610    -0.8850     0.5110 hc         1 XL3       0.036700
      8 HB           1.8910     0.8840    -0.5110 hc         1 XL3       0.055700
      9 HBA          1.8910    -0.8840    -0.5110 hc         1 XL3       0.055700
     10 HC           1.6790    -0.8850     1.9530 h1         1 XL3       0.054700
     11 HCA          1.6790     0.8850     1.9530 h1         1 XL3       0.054700
     12 HSG          4.2980    -0.0000     2.6930 hs         1 XL3       0.217800
@<TRIPOS>BOND
     1     1     2 1
     2     1     5 1
     3     1     6 1
     4     1     7 1
     5     3     2 1
     6     2     8 1
     7     2     9 1
     8     4     3 1
     9     3    10 1
    10     3    11 1
    11     4    12 1
@<TRIPOS>SUBSTRUCTURE
     1 XL3         1 TEMP              0 ****  ****    0 ROOT
