@<TRIPOS>MOLECULE
XLC
   57    60     1     0     0
SMALL
bcc


@<TRIPOS>ATOM
      1 C1           0.0000     0.0000     0.0000 ca         1 XLC      -0.095400
      2 C2           1.3890     0.0000     0.0000 ca         1 XLC      -0.104000
      3 C3           2.0780     0.0000     1.1960 ca         1 XLC      -0.081000
      4 C4           1.3870    -0.0010     2.3950 ca         1 XLC      -0.044600
      5 Cl1          2.2560    -0.0010     3.8980 cl         1 XLC      -0.026400
      6 C5           0.0030    -0.0020     2.3980 ca         1 XLC      -0.081000
      7 C6          -0.6920     0.0030     1.2040 ca         1 XLC      -0.104000
      8 N7          -0.7010     0.0000    -1.2100 ns         1 XLC      -0.025100
      9 C9          -1.8690    -0.6660    -1.3130 c          1 XLC       0.603700
     10 O10         -2.3100    -1.2720    -0.3570 o          1 XLC      -0.662100
     11 C11         -2.6120    -0.6570    -2.5870 ca         1 XLC      -0.206600
     12 C12         -3.8770    -1.2570    -2.6690 ca         1 XLC      -0.003400
     13 C13         -4.5690    -1.2430    -3.8730 ca         1 XLC      -0.128000
     14 C14         -4.0080    -0.6450    -4.9850 ca         1 XLC      -0.044000
     15 C15         -2.7550    -0.0560    -4.9090 ca         1 XLC      -0.067600
     16 Cl2         -2.0660     0.6900    -6.3160 cl         1 XLC      -0.022400
     17 C16         -2.0550    -0.0610    -3.7210 ca         1 XLC      -0.059000
     18 N17         -4.4400    -1.8580    -1.5470 ns         1 XLC      -0.024100
     19 C19         -5.3320    -2.8560    -1.6940 c          1 XLC       0.638700
     20 O20         -5.5690    -3.3020    -2.8020 o          1 XLC      -0.634100
     21 C21         -6.0160    -3.4050    -0.5230 cc         1 XLC      -0.060700
     22 S22         -5.8570    -2.9430     1.1920 ss         1 XLC      -0.252800
     23 C23         -6.9900    -4.0630     1.8730 cc         1 XLC       0.059900
     24 C24         -7.4450    -4.7430     0.7880 cd         1 XLC      -0.168300
     25 C25         -6.9540    -4.4260    -0.4550 cd         1 XLC      -0.006600
     26 Cl3         -7.4920    -5.2590    -1.8810 cl         1 XLC       0.044600
     27 C26         -8.4700    -5.8360     0.9480 c3         1 XLC       0.209100
     28 N27         -9.0370    -5.7810     2.3010 n3         1 XLC      -0.528600
     29 C29        -10.0640    -6.8280     2.3700 c3         1 XLC       0.122800
     30 C30        -10.7860    -6.7510     3.7170 c3         1 XLC       0.140300
     31 N31        -11.4810    -5.4640     3.8320 n3         1 XLC      -0.527600
     32 C33        -10.4540    -4.4180     3.7620 c3         1 XLC       0.140300
     33 C34         -9.7320    -4.4940     2.4160 c3         1 XLC       0.122800
     34 C35        -12.0480    -5.4100     5.1860 c3         1 XLC       0.174100
     35 HC2          1.9310    -0.0010    -0.9380 ha         1 XLC       0.125000
     36 HC3          3.1610     0.0000     1.1960 ha         1 XLC       0.115500
     37 HC5         -0.5350    -0.0010     3.3370 ha         1 XLC       0.115500
     38 HC6         -1.7750     0.0030     1.2080 ha         1 XLC       0.125000
     39 HN7         -0.3560     0.5270    -1.9880 hn         1 XLC       0.176500
     40 HC13        -5.5470    -1.7030    -3.9410 ha         1 XLC       0.162000
     41 HC14        -4.5510    -0.6370    -5.9220 ha         1 XLC       0.117000
     42 HC16        -1.0770     0.4010    -3.6670 ha         1 XLC       0.110000
     43 HN17        -4.2260    -1.5100    -0.6330 hn         1 XLC       0.221500
     44 HC23        -7.2690    -4.1900     2.9120 h4         1 XLC       0.190000
     45 H261        -7.9980    -6.7980     0.7920 h1         1 XLC       0.028200
     46 H262        -9.2600    -5.6990     0.2190 h1         1 XLC       0.028200
     47 H291       -10.7800    -6.6820     1.5700 h1         1 XLC       0.025950
     48 H292        -9.5950    -7.7990     2.2690 h1         1 XLC       0.025950
     49 H301       -10.0620    -6.8410     4.5180 h1         1 XLC       0.017700
     50 H302       -11.5070    -7.5560     3.7840 h1         1 XLC       0.017700
     51 H331        -9.7380    -4.5640     4.5620 h1         1 XLC       0.017700
     52 H332       -10.9230    -3.4470     3.8630 h1         1 XLC       0.017700
     53 H341        -9.0110    -3.6890     2.3490 h1         1 XLC       0.025950
     54 H342       -10.4560    -4.4040     1.6150 h1         1 XLC       0.025950
     55 H351       -12.7770    -6.2030     5.3050 h1         1 XLC       0.003367
     56 H352       -12.5280    -4.4510     5.3390 h1         1 XLC       0.003367
     57 H353       -11.2560    -5.5370     5.9150 h1         1 XLC       0.003367
@<TRIPOS>BOND
     1     1     2 ar  
     2     1     7 ar  
     3     1     8 1   
     4     2     3 ar  
     5     2    35 1   
     6     3     4 ar  
     7     3    36 1   
     8     4     5 1   
     9     4     6 ar  
    10     6     7 ar  
    11     6    37 1   
    12     7    38 1   
    13     8     9 1   
    14     8    39 1   
    15     9    10 2   
    16     9    11 1   
    17    11    12 ar  
    18    11    17 ar  
    19    12    13 ar  
    20    12    18 1   
    21    13    14 ar  
    22    13    40 1   
    23    14    15 ar  
    24    14    41 1   
    25    15    16 1   
    26    15    17 ar  
    27    17    42 1   
    28    18    19 1   
    29    18    43 1   
    30    19    20 2   
    31    19    21 1   
    32    21    22 1   
    33    21    25 2   
    34    22    23 1   
    35    23    24 2   
    36    23    44 1   
    37    24    25 1   
    38    24    27 1   
    39    25    26 1   
    40    27    28 1   
    41    27    45 1   
    42    27    46 1   
    43    28    29 1   
    44    28    33 1   
    45    29    30 1   
    46    29    47 1   
    47    29    48 1   
    48    30    31 1   
    49    30    49 1   
    50    30    50 1   
    51    31    32 1   
    52    31    34 1   
    53    32    33 1   
    54    32    51 1   
    55    32    52 1   
    56    33    53 1   
    57    33    54 1   
    58    34    55 1   
    59    34    56 1   
    60    34    57 1   
@<TRIPOS>SUBSTRUCTURE
     1 XLC         1 TEMP              0 ****  ****    0 ROOT
