@<TRIPOS>MOLECULE
XLD
   56    59     1     0     0
SMALL
bcc


@<TRIPOS>ATOM
      1 C1           0.0000     0.0000     0.0000 ca         1 XLD       0.362200
      2 N2           1.3240     0.0000     0.0000 nb         1 XLD      -0.547000
      3 C3           2.0160     0.0000     1.1230 ca         1 XLD       0.438200
      4 C4           1.3780    -0.0110     2.3490 ca         1 XLD      -0.193900
      5 Cl1          2.3000    -0.0190     3.8190 cl         1 XLD      -0.007400
      6 C5          -0.0110    -0.0180     2.3920 ca         1 XLD      -0.036000
      7 C6          -0.7080    -0.0120     1.1970 ca         1 XLD      -0.258300
      8 N7          -0.6900     0.0050    -1.2110 ns         1 XLD      -0.113400
      9 C9          -0.0130    -0.0880    -2.3730 c          1 XLD       0.575700
     10 O10          1.2030    -0.0800    -2.3700 o          1 XLD      -0.582100
     11 C11         -0.7470    -0.1970    -3.6460 ca         1 XLD      -0.127600
     12 C12         -0.0470    -0.3000    -4.8560 ca         1 XLD      -0.051400
     13 C13         -0.7510    -0.3980    -6.0540 ca         1 XLD       0.155100
     14 C14         -2.1350    -0.4040    -6.0430 ca         1 XLD      -0.195000
     15 C15         -2.8280    -0.3080    -4.8460 ca         1 XLD       0.002400
     16 Cl2         -4.5630    -0.3160    -4.8500 cl         1 XLD      -0.019400
     17 C16         -2.1440    -0.2060    -3.6530 ca         1 XLD      -0.121000
     18 O17         -0.0790    -0.4920    -7.2320 os         1 XLD      -0.258900
     19 C18         -1.0650    -0.5850    -8.2630 c3         1 XLD       0.214700
     20 N19          1.3470    -0.2930    -4.8610 ns         1 XLD      -0.019100
     21 C20          2.0240    -1.3460    -5.3570 c          1 XLD       0.640700
     22 O21          1.4180    -2.3050    -5.8000 o          1 XLD      -0.630100
     23 C22          3.4880    -1.3390    -5.3640 cc         1 XLD      -0.032700
     24 S23          4.6070    -0.0800    -4.7830 ss         1 XLD      -0.244800
     25 C24          6.1050    -0.8680    -5.1590 cc         1 XLD       0.042900
     26 C25          5.7070    -2.0450    -5.7070 cd         1 XLD      -0.184300
     27 C26          4.3650    -2.3140    -5.8170 cd         1 XLD      -0.014600
     28 Cl3          3.7920    -3.8010    -6.5060 cl         1 XLD       0.041600
     29 C28          6.7270    -3.0480    -6.1810 c3         1 XLD       0.241100
     30 N29          8.0750    -2.5240    -5.9440 nh         1 XLD      -0.419600
     31 C31          8.7560    -2.7980    -4.6770 c3         1 XLD       0.218100
     32 C32          8.7000    -1.7770    -6.9120 c2         1 XLD       0.679500
     33 N33          9.8910    -1.2820    -6.7670 n2         1 XLD      -0.739900
     34 C34         10.2380    -0.5340    -7.9900 c3         1 XLD       0.151800
     35 C35          8.8590    -0.3840    -8.6760 c3         1 XLD       0.184400
     36 O36          8.1340    -1.4910    -8.1010 os         1 XLD      -0.420400
     37 HC3          3.0990     0.0000     1.0840 h4         1 XLD      -0.007900
     38 HC5         -0.5360    -0.0270     3.3390 ha         1 XLD       0.118000
     39 HC6         -1.7920    -0.0140     1.1930 ha         1 XLD       0.117000
     40 HN7         -1.6850     0.1140    -1.2190 hn         1 XLD       0.178500
     41 H141        -2.6810    -0.4800    -6.9760 ha         1 XLD       0.148000
     42 H161        -2.6910    -0.1310    -2.7210 ha         1 XLD       0.113000
     43 H181        -0.5740    -0.6650    -9.2250 h1         1 XLD       0.005700
     44 H182        -1.6800    -1.4600    -8.0970 h1         1 XLD       0.005700
     45 H183        -1.6870     0.3020    -8.2480 h1         1 XLD       0.005700
     46 H191         1.8440     0.5150    -4.5420 hn         1 XLD       0.194500
     47 H241         7.1140    -0.5070    -4.9990 h4         1 XLD       0.178000
     48 H281         6.6000    -3.9760    -5.6370 h1         1 XLD       0.041700
     49 H282         6.5910    -3.2280    -7.2400 h1         1 XLD       0.041700
     50 H311         9.1630    -1.8760    -4.2790 h1         1 XLD       0.014367
     51 H312         8.0490    -3.2150    -3.9700 h1         1 XLD       0.014367
     52 H313         9.5590    -3.5050    -4.8440 h1         1 XLD       0.014367
     53 H341        10.9160    -1.1060    -8.6110 h1         1 XLD       0.022700
     54 H342        10.6520     0.4360    -7.7430 h1         1 XLD       0.022700
     55 H351         8.3970     0.5590    -8.4120 h1         1 XLD       0.020200
     56 H352         8.9470    -0.4960    -9.7500 h1         1 XLD       0.020200
@<TRIPOS>BOND
     1     1     2 ar  
     2     1     7 ar  
     3     1     8 1   
     4     2     3 ar  
     5     3     4 ar  
     6     3    37 1   
     7     4     5 1   
     8     4     6 ar  
     9     6     7 ar  
    10     6    38 1   
    11     7    39 1   
    12     8     9 1   
    13     8    40 1   
    14     9    10 2   
    15     9    11 1   
    16    11    12 ar  
    17    11    17 ar  
    18    12    13 ar  
    19    12    20 1   
    20    13    14 ar  
    21    13    18 1   
    22    14    15 ar  
    23    14    41 1   
    24    15    16 1   
    25    15    17 ar  
    26    17    42 1   
    27    18    19 1   
    28    19    43 1   
    29    19    44 1   
    30    19    45 1   
    31    20    21 1   
    32    20    46 1   
    33    21    22 2   
    34    21    23 1   
    35    23    24 1   
    36    23    27 2   
    37    24    25 1   
    38    25    26 2   
    39    25    47 1   
    40    26    27 1   
    41    26    29 1   
    42    27    28 1   
    43    29    30 1   
    44    29    48 1   
    45    29    49 1   
    46    30    31 1   
    47    30    32 1   
    48    31    50 1   
    49    31    51 1   
    50    31    52 1   
    51    32    33 2   
    52    32    36 1   
    53    33    34 1   
    54    34    35 1   
    55    34    53 1   
    56    34    54 1   
    57    35    36 1   
    58    35    55 1   
    59    35    56 1   
@<TRIPOS>SUBSTRUCTURE
     1 XLD         1 TEMP              0 ****  ****    0 ROOT
