@<TRIPOS>MOLECULE
molecule
   44    45     1     0     0
SMALL
bcc


@<TRIPOS>ATOM
      1 C1           0.0000     0.0000     0.0000 c3         1 XLM       0.318900
      2 C2           1.5310     0.0000     0.0000 c3         1 XLM       0.123100
      3 C3           2.0300     0.0000     1.4490 c3         1 XLM       0.120100
      4 C4           1.3790     1.1700     2.1910 c3         1 XLM       0.095100
      5 C5          -0.1400     1.0820     2.0260 c3         1 XLM       0.114400
      6 O2           2.0100    -1.1660    -0.6710 oh         1 XLM      -0.591800
      7 O3           3.4510     0.1500     1.4700 oh         1 XLM      -0.602800
      8 O4           1.7130     1.1040     3.5790 oh         1 XLM      -0.601800
      9 O5          -0.4830     1.1760     0.6450 os         1 XLM      -0.412600
     10 C1'         -3.9420    -1.4690    -1.3360 c3         1 XLM       0.287900
     11 C2'         -2.4150    -1.4790    -1.2440 c3         1 XLM       0.104100
     12 C3'         -1.9020    -0.0370    -1.2800 c3         1 XLM       0.127100
     13 C4'         -2.4750     0.6550    -2.5230 c3         1 XLM       0.127100
     14 C5'         -3.9980     0.5040    -2.5190 c3         1 XLM       0.120100
     15 C6'         -4.5820     1.2210    -3.7380 c3         1 XLM       0.148400
     16 O2'         -1.8730    -2.2080    -2.3460 oh         1 XLM      -0.574800
     17 O3'         -0.4750    -0.0340    -1.3470 os         1 XLM      -0.360600
     18 O4'         -2.1310     2.0410    -2.5010 oh         1 XLM      -0.594800
     19 O5'         -4.3480    -0.8770    -2.5680 os         1 XLM      -0.391600
     20 O6'         -6.0040     1.0880    -3.7330 oh         1 XLM      -0.604800
     21 H1          -0.3570    -0.8720     0.5340 h2         1 XLM       0.039700
     22 H2           1.8910     0.8880    -0.5050 h1         1 XLM       0.068700
     23 H3           1.7520    -0.9310     1.9270 h1         1 XLM       0.058700
     24 H4           1.7330     2.1040     1.7730 h1         1 XLM       0.061700
     25 H5C1        -0.4890     0.1340     2.4180 h1         1 XLM       0.061700
     26 H5C2        -0.6080     1.8950     2.5680 h1         1 XLM       0.061700
     27 HA           2.7680    -0.9440    -1.1850 ho         1 XLM       0.416000
     28 HB           3.8310    -0.5310     2.0000 ho         1 XLM       0.415000
     29 HC           2.0090     1.9500     3.8720 ho         1 XLM       0.412000
     30 H1'         -4.3100    -2.4870    -1.2900 h2         1 XLM       0.072700
     31 H2'         -2.1140    -1.9450    -0.3130 h1         1 XLM       0.047700
     32 H3'         -2.2310     0.4860    -0.3910 h1         1 XLM       0.098700
     33 H4'         -2.0690     0.1900    -3.4130 h1         1 XLM       0.067700
     34 H5'         -4.3990     0.9420    -1.6120 h1         1 XLM       0.080700
     35 H6'1        -4.3180     2.2710    -3.7010 h1         1 XLM       0.033700
     36 H6'2        -4.1810     0.7790    -4.6430 h1         1 XLM       0.033700
     37 H7'1        -6.3360    -1.2490     0.4680 h1         1 XLM       0.044033
     38 H7'2        -6.1640    -1.2730    -1.2930 h1         1 XLM       0.044033
     39 H7'3        -6.2790     0.2710    -0.4370 h1         1 XLM       0.044033
     40 HD          -1.8100    -3.1210    -2.1190 ho         1 XLM       0.403000
     41 HE          -1.6450     2.2560    -3.2790 ho         1 XLM       0.406000
     42 H6'         -6.3660     1.5520    -4.4700 ho         1 XLM       0.402000
     43 O1'         -4.4780    -0.7140    -0.2480 os         1 XLM      -0.433600
     44 C7'         -5.9010    -0.7430    -0.3860 c3         1 XLM       0.108700
@<TRIPOS>BOND
     1     1     2 1
     2     1     9 1
     3     1    17 1
     4     1    21 1
     5     2     3 1
     6     2     6 1
     7     2    22 1
     8     3     4 1
     9     3     7 1
    10     3    23 1
    11     4     5 1
    12     4     8 1
    13     4    24 1
    14     5     9 1
    15     5    25 1
    16     5    26 1
    17     6    27 1
    18     7    28 1
    19     8    29 1
    20    10    11 1
    21    10    43 1
    22    10    19 1
    23    10    30 1
    24    11    12 1
    25    11    16 1
    26    11    31 1
    27    12    13 1
    28    12    17 1
    29    12    32 1
    30    13    14 1
    31    13    18 1
    32    13    33 1
    33    14    15 1
    34    14    19 1
    35    14    34 1
    36    15    20 1
    37    15    35 1
    38    15    36 1
    39    44    43 1
    40    44    37 1
    41    44    38 1
    42    44    39 1
    43    16    40 1
    44    18    41 1
    45    20    42 1
@<TRIPOS>SUBSTRUCTURE
     1 XLM         1 TEMP              0 ****  ****    0 ROOT
