@<TRIPOS>MOLECULE
XLM
   44    40     1     0     0
SMALL
bcc


@<TRIPOS>ATOM
      1 C1         -0.7330   -0.6360   -1.0130 c3        1 XLM      0.079000
      2 C2          4.4390   -0.7410    2.1250 c1        1 XLM     -0.016000
      3 C3          2.0080    1.0310    2.0230 c1        1 XLM     -0.002000
      4 C4          1.0140    0.9070    0.9070 c3        1 XLM     -0.113000
      5 C5         -0.0130   -0.1810    1.2300 c3        1 XLM     -0.024000
      6 O2          3.8230   -0.8390    3.2420 oh        1 XLM     -0.167500
      7 O3          2.3060    2.1820    2.5130 oh        1 XLM     -0.142000
      8 O4          0.3800    2.1630    0.7080 oh        1 XLM     -0.364000
      9 O5         -1.0700   -0.1840    0.2790 os        1 XLM     -0.310000
     10 C1'        -4.5930   -0.7490   -0.7900 c1        1 XLM      0.147000
     11 C2'        -3.0390   -4.2480   -2.2160 c3        1 XLM     -0.067000
     12 C3'        -0.9820    1.1210   -2.6330 c2        1 XLM     -0.014000
     13 C4'        -2.2930    1.4330   -2.5540 c2        1 XLM     -0.070000
     14 C5'        -3.2080    1.2140   -1.3970 c3        1 XLM     -0.053000
     15 C6'        -6.4860    1.6310   -4.0830 c1        1 XLM     -0.016000
     16 O2'        -2.7420   -2.8690   -2.2260 oh        1 XLM     -0.357000
     17 O3'        -0.2150    0.5250   -1.6590 os        1 XLM     -0.272000
     18 O4'        -2.8620    1.9640   -3.7030 oh        1 XLM     -0.268000
     19 O5'        -3.8930   -0.0350   -1.6290 os        1 XLM     -0.250000
     20 O6'        -5.3940    1.5810   -3.4130 oh        1 XLM     -0.167500
     21 H1         -1.6810   -1.0230   -1.4760 h2        1 XLM      0.138500
     22 H2          0.1030   -1.3850   -1.0150 h2        1 XLM      0.138500
     23 H3          4.0550    0.0190    1.3930 ha        1 XLM     -0.007000
     24 H4          1.5790    0.6180   -0.0300 h1        1 XLM      0.135000
     25 H5C1        0.4880   -1.1820    1.2710 h1        1 XLM      0.110500
     26 H5C2       -0.5360    0.0370    2.2000 h1        1 XLM      0.110500
     27 HA          3.0480   -0.2330    3.3720 ho        1 XLM      0.183500
     28 HB          1.8380    2.9600    2.1340 ho        1 XLM      0.211000
     29 HC         -0.2170    2.0590   -0.0460 ho        1 XLM      0.239000
     30 H1'        -3.7090   -4.5170   -3.0710 h1        1 XLM      0.067333
     31 H2'        -2.0520   -4.7630   -2.3270 h1        1 XLM      0.067333
     32 H3'        -3.5210   -4.5450   -1.2520 h1        1 XLM      0.067333
     33 H4'        -0.3590    1.3790   -3.5080 h4        1 XLM      0.176000
     34 H5'        -2.6190    1.1660   -0.4460 h1        1 XLM      0.113500
     35 H6'1       -6.7400    0.7610   -4.7340 ha        1 XLM     -0.007000
     36 H6'2       -3.9890    2.0210   -1.3530 h1        1 XLM      0.113500
     37 H7'1       -4.5810    1.5650    0.7570 h1        1 XLM      0.096667
     38 H7'2       -3.2320    0.4740    1.4000 h1        1 XLM      0.096667
     39 H7'3       -4.8780    0.4950    2.2180 h1        1 XLM      0.096667
     40 HD         -3.5800   -2.3930   -2.1310 ho        1 XLM      0.219000
     41 HE         -3.4380    2.6950   -3.4260 ho        1 XLM      0.229000
     42 H6'        -4.8280    0.7780   -3.5090 ho        1 XLM      0.183500
     43 O1'        -4.8250   -0.5010    0.4660 os        1 XLM     -0.216000
     44 C7'        -4.3330    0.5940    1.2450 c3        1 XLM     -0.117000
@<TRIPOS>BOND
     1    1    9 1   
     2    1   17 1   
     3    1   21 1   
     4    1   22 1   
     5    2    6 1   
     6    2   23 1   
     7    3    4 1   
     8    3    7 1   
     9    4    5 1   
    10    4    8 1   
    11    4   24 1   
    12    5    9 1   
    13    5   25 1   
    14    5   26 1   
    15    6   27 1   
    16    7   28 1   
    17    8   29 1   
    18   10   19 1   
    19   10   43 1   
    20   11   16 1   
    21   11   30 1   
    22   11   31 1   
    23   11   32 1   
    24   12   13 1   
    25   12   17 1   
    26   12   33 1   
    27   13   14 1   
    28   13   18 1   
    29   14   19 1   
    30   14   34 1   
    31   14   36 1   
    32   15   20 1   
    33   15   35 1   
    34   16   40 1   
    35   18   41 1   
    36   20   42 1   
    37   37   44 1   
    38   38   44 1   
    39   39   44 1   
    40   43   44 1   
@<TRIPOS>SUBSTRUCTURE
     1 XLM         1 TEMP              0 ****  ****    0 ROOT
