@<TRIPOS>MOLECULE
molecule
   29    30     1     0     0
SMALL
bcc


@<TRIPOS>ATOM
      1 C01          0.0000     0.0000     0.0000 ca         1 XLO      -0.076000
      2 C02          1.3810     0.0000     0.0000 ca         1 XLO      -0.169000
      3 C03          2.0770     0.0000     1.1920 ca         1 XLO      -0.129000
      4 C04          1.3880     0.0010     2.4080 ca         1 XLO      -0.120800
      5 C05         -0.0060     0.0020     2.4150 ca         1 XLO      -0.077000
      6 C06         -0.7020     0.0070     1.2080 ca         1 XLO      -0.110600
      7 C07         -2.1800     0.0080     1.2040 c          1 XLO       0.882200
      8 C08          2.1320     0.0010     3.6810 ce         1 XLO      -0.035200
      9 C09          3.4750    -0.0010     3.6720 cf         1 XLO      -0.189200
     10 C10          4.2190    -0.0020     4.9440 ca         1 XLO      -0.016800
     11 C11          3.5310    -0.0070     6.1600 ca         1 XLO      -0.117000
     12 C12          4.2320    -0.0070     7.3460 ca         1 XLO      -0.143000
     13 C13          5.6210    -0.0030     7.3360 ca         1 XLO       0.084100
     14 C14          6.3110     0.0020     6.1300 ca         1 XLO      -0.147000
     15 C15          5.6190    -0.0040     4.9370 ca         1 XLO       0.032400
     16 O01         -2.8510     0.0020     0.0360 o          1 XLO      -0.835300
     17 O02         -2.7900     0.0140     2.2550 o          1 XLO      -0.835300
     18 O03          6.3060    -0.0040     8.5090 oh         1 XLO      -0.523100
     19 Cl1          6.4830    -0.0050     3.4310 cl         1 XLO      -0.112400
     20 H1          -0.5400     0.0020    -0.9390 ha         1 XLO       0.156000
     21 H2           1.9210    -0.0030    -0.9390 ha         1 XLO       0.109000
     22 H3           3.1600    -0.0000     1.1850 ha         1 XLO       0.110000
     23 H4          -0.5460     0.0050     3.3540 ha         1 XLO       0.148000
     24 H5           1.5960     0.0020     4.6220 ha         1 XLO       0.124000
     25 H6           4.0110    -0.0030     2.7310 ha         1 XLO       0.149000
     26 H7           2.4480    -0.0100     6.1700 ha         1 XLO       0.150000
     27 H8           3.6980    -0.0110     8.2890 ha         1 XLO       0.138000
     28 H9           7.3940     0.0030     6.1270 ha         1 XLO       0.143000
     29 H11          6.5000     0.8840     8.7600 ho         1 XLO       0.412000
@<TRIPOS>BOND
     1    17     7 1
     2    16     7 1
     3     7     6 1
     4     6     1 ar
     5     6     5 ar
     6     1     2 ar
     7     5     4 ar
     8     2     3 ar
     9     4     3 ar
    10     4     8 1
    11     8     9 2
    12     9    10 1
    13    11    10 ar
    14    11    12 ar
    15    10    15 ar
    16    12    13 ar
    17    15    19 1
    18    15    14 ar
    19    13    14 ar
    20    13    18 1
    21     1    20 1
    22     2    21 1
    23     3    22 1
    24     5    23 1
    25     8    24 1
    26     9    25 1
    27    11    26 1
    28    12    27 1
    29    14    28 1
    30    18    29 1
@<TRIPOS>SUBSTRUCTURE
     1 XLO         1 TEMP              0 ****  ****    0 ROOT
