@<TRIPOS>MOLECULE
XLX
   35    34     1     0     0
SMALL
bcc


@<TRIPOS>ATOM
      1 O13          0.0000     0.0000     0.0000 o          1 XLX      -0.639100
      2 C12          1.2130     0.0000     0.0000 c          1 XLX       0.569100
      3 C11          1.9660     0.0000     1.3060 c3         1 XLX      -0.102400
      4 N8           1.8870    -0.0060    -1.1670 ns         1 XLX      -0.218900
      5 C7           1.1560    -0.0130    -2.4360 c3         1 XLX       0.038000
      6 C6           2.1490    -0.0200    -3.5980 c3         1 XLX       0.038000
      7 N1           1.4180    -0.0260    -4.8680 ns         1 XLX      -0.220900
      8 C2           2.0920    -0.0320    -6.0340 c          1 XLX       0.569100
      9 O15          3.3050    -0.0330    -6.0340 o          1 XLX      -0.665100
     10 C3           1.3390    -0.0390    -7.3390 c3         1 XLX      -0.079400
     11 H1           2.5900     0.8840     1.3630 hc         1 XLX       0.016700
     12 H2           2.5880    -0.8850     1.3640 hc         1 XLX       0.016700
     13 H4           2.8880    -0.0060    -1.1660 hn         1 XLX       0.172500
     14 H5           0.5330    -0.8980    -2.4890 h1         1 XLX       0.023700
     15 H6           0.5330     0.8710    -2.4980 h1         1 XLX       0.023700
     16 H7           2.7730     0.8650    -3.5450 h1         1 XLX       0.019700
     17 H8           2.7720    -0.9040    -3.5360 h1         1 XLX       0.019700
     18 H9           0.4170    -0.0250    -4.8680 hn         1 XLX       0.178500
     19 H10          0.7160    -0.9240    -7.3920 hc         1 XLX       0.033700
     20 H11          0.7160     0.8450    -7.4010 hc         1 XLX       0.033700
     21 C1           2.3340    -0.0460    -8.5020 c3         1 XLX      -0.119400
     22 C4           1.5800    -0.0520    -9.8070 c          1 XLX       0.979600
     23 O2           0.3720    -0.0520    -9.8080 o          1 XLX      -0.910800
     24 O1           2.2520    -0.0590   -10.9700 o          1 XLX      -0.910800
     25 C9           0.9710     0.0010     2.4680 c3         1 XLX      -0.004400
     26 C10          1.7350     0.0020     3.7930 c3         1 XLX      -0.136400
     27 C13          0.7560     0.0020     4.9380 c          1 XLX       0.980600
     28 O4           1.2030     0.0030     6.2050 o          1 XLX      -0.906800
     29 O3          -0.4320     0.0030     4.7170 o          1 XLX      -0.906800
     30 H3           2.9560    -0.9300    -8.4400 hc         1 XLX       0.019200
     31 H12          2.9570     0.8390    -8.4490 hc         1 XLX       0.019200
     32 H14          0.3480    -0.8830     2.4110 hc         1 XLX       0.035700
     33 H15          0.3490     0.8860     2.4100 hc         1 XLX       0.035700
     34 H16          2.3580     0.8860     3.8500 hc         1 XLX       0.000200
     35 H17          2.3580    -0.8830     3.8510 hc         1 XLX       0.000200
@<TRIPOS>BOND
     1     1     2 2   
     2     2     3 1   
     3     2     4 1   
     4     3    11 1   
     5     3    12 1   
     6     3    25 1   
     7     4     5 1   
     8     4    13 1   
     9     5     6 1   
    10     5    14 1   
    11     5    15 1   
    12     6     7 1   
    13     6    16 1   
    14     6    17 1   
    15     7     8 1   
    16     7    18 1   
    17     8     9 2   
    18     8    10 1   
    19    10    19 1   
    20    10    20 1   
    21    10    21 1   
    22    21    22 1   
    23    21    30 1   
    24    21    31 1   
    25    22    23 1   
    26    22    24 1   
    27    25    26 1   
    28    25    32 1   
    29    25    33 1   
    30    26    27 1   
    31    26    34 1   
    32    26    35 1   
    33    27    28 1   
    34    27    29 1   
@<TRIPOS>SUBSTRUCTURE
     1 XLX         1 TEMP              0 ****  ****    0 ROOT
