@<TRIPOS>MOLECULE
XM0
   22    23     1     0     0
SMALL
bcc


@<TRIPOS>ATOM
      1 C1           0.0000     0.0000     0.0000 ca         1 XM0      -0.068000
      2 C2           1.3830     0.0000     0.0000 ca         1 XM0      -0.068000
      3 C3           2.0730     0.0000     1.1970 ca         1 XM0      -0.054000
      4 C4           1.3830     0.0010     2.3980 ca         1 XM0      -0.125300
      5 C5           0.0010     0.0020     2.3980 ca         1 XM0      -0.125300
      6 C6          -0.6890     0.0010     1.1970 ca         1 XM0      -0.054000
      7 C7          -0.5110     0.0020     3.8230 c3         1 XM0       0.057900
      8 C8           0.6920    -0.4380     4.6840 c3         1 XM0      -0.101500
      9 C9           1.8950     0.0020     3.8220 c3         1 XM0       0.057900
     10 N10          0.6930     0.2610     5.9760 nz         1 XM0       0.086400
     11 H1          -0.5420     0.0000    -0.9380 ha         1 XM0       0.122000
     12 H2           1.9250    -0.0010    -0.9380 ha         1 XM0       0.122000
     13 H6          -1.7720     0.0010     1.1960 ha         1 XM0       0.114000
     14 H3           3.1560    -0.0000     1.1960 ha         1 XM0       0.114000
     15 H91C         2.2150     0.9970     4.1050 hc         1 XM0       0.036200
     16 H92C         2.7100    -0.7050     3.9270 hc         1 XM0       0.036200
     17 H71C        -0.8290     0.9980     4.1060 hc         1 XM0       0.036200
     18 H72C        -1.3250    -0.7040     3.9290 hc         1 XM0       0.036200
     19 H8           0.6910    -1.5130     4.8210 hx         1 XM0       0.103700
     20 H101        -0.1240     0.0050     6.4940 hn         1 XM0       0.224133
     21 H102         0.6930     1.2500     5.8200 hn         1 XM0       0.224133
     22 H103         1.5100     0.0040     6.4940 hn         1 XM0       0.224133
@<TRIPOS>BOND
     1     1     2 ar  
     2     1     6 ar  
     3     1    11 1   
     4     2     3 ar  
     5     2    12 1   
     6     3     4 ar  
     7     3    14 1   
     8     4     5 ar  
     9     4     9 1   
    10     5     6 ar  
    11     5     7 1   
    12     6    13 1   
    13     7     8 1   
    14     7    17 1   
    15     7    18 1   
    16     8     9 1   
    17     8    10 1   
    18     8    19 1   
    19     9    15 1   
    20     9    16 1   
    21    10    20 1   
    22    10    21 1   
    23    10    22 1   
@<TRIPOS>SUBSTRUCTURE
     1 XM0         1 TEMP              0 ****  ****    0 ROOT
