@<TRIPOS>MOLECULE
XM1
   52    55     1     0     0
SMALL
bcc


@<TRIPOS>ATOM
      1 C1           0.0000     0.0000     0.0000 ca         1 XM1       0.560200
      2 Cl1         -0.1710    -5.5800    10.2710 cl         1 XM1       0.024600
      3 C2           1.4020     0.0000     0.0000 ca         1 XM1      -0.365400
      4 C3           2.4400     0.0000     1.0300 cc         1 XM1      -0.148200
      5 C4           3.6210     0.0000     0.3920 cd         1 XM1      -0.253100
      6 N5          -3.9930    -4.4680     3.8780 nz         1 XM1       0.076400
      7 N6           3.4170     0.0000    -0.9640 na         1 XM1       0.286900
      8 C7           2.0770    -0.0000    -1.2360 ca         1 XM1       0.274800
      9 N8          -0.6320    -0.0050    -1.1700 nb         1 XM1      -0.706000
     10 C9           0.0400    -0.0050    -2.3070 ca         1 XM1       0.664900
     11 N10          1.3550    -0.0000    -2.3550 nb         1 XM1      -0.626000
     12 N11         -0.7080    -0.0000     1.1890 nh         1 XM1      -0.452300
     13 C12         -2.1560    -0.0000     0.9390 c3         1 XM1       0.121300
     14 C13         -2.9010     0.1810     2.2660 c3         1 XM1       0.031000
     15 N14         -2.4330    -0.8460     3.2080 n          1 XM1      -0.103800
     16 C15         -0.9830    -0.9980     3.4080 c3         1 XM1       0.031000
     17 C16         -0.3150    -1.1340     2.0360 c3         1 XM1       0.121300
     18 C17         -3.3080    -1.6260     3.8720 c          1 XM1       0.552100
     19 O18         -4.4940    -1.5510     3.6280 o          1 XM1      -0.670100
     20 C19         -2.8140    -2.5900     4.9190 c3         1 XM1      -0.145700
     21 C20         -2.6000    -1.8460     6.2390 c3         1 XM1       0.055900
     22 C21         -3.8500    -3.6990     5.1210 c3         1 XM1      -0.050200
     23 C22         -1.9910    -2.7830     7.2510 ca         1 XM1      -0.142300
     24 C23         -0.6160    -2.8890     7.3540 ca         1 XM1      -0.094000
     25 C24         -0.0570    -3.7470     8.2810 ca         1 XM1      -0.084500
     26 C25         -0.8730    -4.5010     9.1070 ca         1 XM1      -0.033600
     27 C26         -2.2480    -4.3940     9.0030 ca         1 XM1      -0.084500
     28 C27         -2.8070    -3.5320     8.0780 ca         1 XM1      -0.094000
     29 H3           2.2850    -0.0000     2.1020 ha         1 XM1       0.132000
     30 H4           4.5900    -0.0000     0.8760 h4         1 XM1       0.151000
     31 HN5         -3.0860    -4.6660     3.5030 hn         1 XM1       0.226133
     32 HN5A        -4.4690    -5.3260     4.0700 hn         1 XM1       0.226133
     33 H9          -0.5140    -0.0090    -3.2380 h5         1 XM1       0.005100
     34 H12         -2.4070     0.8150     0.2710 h1         1 XM1       0.038700
     35 H12A        -2.4440    -0.9430     0.4900 h1         1 XM1       0.038700
     36 H13         -3.9660     0.0660     2.1030 h1         1 XM1       0.045450
     37 H13A        -2.6920     1.1650     2.6680 h1         1 XM1       0.045450
     38 H15         -0.5930    -0.1240     3.9170 h1         1 XM1       0.045450
     39 H15A        -0.7890    -1.8860     3.9960 h1         1 XM1       0.045450
     40 H16          0.7620    -1.1360     2.1590 h1         1 XM1       0.038700
     41 H16A        -0.6330    -2.0590     1.5710 h1         1 XM1       0.038700
     42 H19         -1.8770    -3.0270     4.5940 hc         1 XM1       0.056700
     43 H20         -3.5520    -1.4860     6.6080 hc         1 XM1       0.045700
     44 H20A        -1.9340    -1.0070     6.0770 hc         1 XM1       0.045700
     45 H21         -4.8040    -3.2580     5.3840 hx         1 XM1       0.100700
     46 H21A        -3.5250    -4.3570     5.9170 hx         1 XM1       0.100700
     47 H23          0.0220    -2.2980     6.7080 ha         1 XM1       0.108000
     48 H24          1.0200    -3.8300     8.3620 ha         1 XM1       0.126500
     49 H26         -2.8880    -4.9810     9.6510 ha         1 XM1       0.126500
     50 H27         -3.8840    -3.4480     7.9970 ha         1 XM1       0.108000
     51 HN6          4.1430     0.0000    -1.6540 hn         1 XM1       0.129700
     52 H53         -4.5170    -3.9340     3.2130 hn         1 XM1       0.226133
@<TRIPOS>BOND
     1     1     3 ar  
     2     1     9 ar  
     3     1    12 1   
     4     2    26 1   
     5     3     4 1   
     6     3     8 ar  
     7     4     5 2   
     8     4    29 1   
     9     5     7 1   
    10     5    30 1   
    11     6    22 1   
    12     6    31 1   
    13     6    32 1   
    14     6    52 1   
    15     7     8 1   
    16     7    51 1   
    17     8    11 ar  
    18     9    10 ar  
    19    10    11 ar  
    20    10    33 1   
    21    12    13 1   
    22    12    17 1   
    23    13    14 1   
    24    13    34 1   
    25    13    35 1   
    26    14    15 1   
    27    14    36 1   
    28    14    37 1   
    29    15    16 1   
    30    15    18 1   
    31    16    17 1   
    32    16    38 1   
    33    16    39 1   
    34    17    40 1   
    35    17    41 1   
    36    18    19 2   
    37    18    20 1   
    38    20    21 1   
    39    20    22 1   
    40    20    42 1   
    41    21    23 1   
    42    21    43 1   
    43    21    44 1   
    44    22    45 1   
    45    22    46 1   
    46    23    24 ar  
    47    23    28 ar  
    48    24    25 ar  
    49    24    47 1   
    50    25    26 ar  
    51    25    48 1   
    52    26    27 ar  
    53    27    28 ar  
    54    27    49 1   
    55    28    50 1   
@<TRIPOS>SUBSTRUCTURE
     1 XM1         1 TEMP              0 ****  ****    0 ROOT
