@<TRIPOS>MOLECULE
molecule
   52    55     1     0     0
SMALL
bcc


@<TRIPOS>ATOM
      1 C1           0.0000     0.0000     0.0000 ca         1 XM1       0.678200
      2 Cl1         -0.1710    -5.5800    10.2710 cl         1 XM1      -0.067400
      3 C2           1.4020     0.0000     0.0000 ca         1 XM1      -0.362400
      4 C3           2.4400     0.0000     1.0300 cc         1 XM1      -0.190200
      5 C4           3.6210     0.0000     0.3920 cd         1 XM1      -0.084100
      6 N5          -3.9930    -4.4680     3.8780 nz         1 XM1      -0.810600
      7 N6           3.4170     0.0000    -0.9640 na         1 XM1      -0.266100
      8 C7           2.0770    -0.0000    -1.2360 ca         1 XM1       0.511800
      9 N8          -0.6320    -0.0050    -1.1700 nb         1 XM1      -0.813000
     10 C9           0.0400    -0.0050    -2.3070 ca         1 XM1       0.725900
     11 N10          1.3550    -0.0000    -2.3550 nb         1 XM1      -0.759000
     12 N11         -0.7080    -0.0000     1.1890 nh         1 XM1      -0.690300
     13 C12         -2.1560    -0.0000     0.9390 c3         1 XM1       0.153800
     14 C13         -2.9010     0.1810     2.2660 c3         1 XM1       0.091500
     15 N14         -2.4330    -0.8460     3.2080 n          1 XM1      -0.465800
     16 C15         -0.9830    -0.9980     3.4080 c3         1 XM1       0.091500
     17 C16         -0.3150    -1.1340     2.0360 c3         1 XM1       0.153800
     18 C17         -3.3080    -1.6260     3.8720 c          1 XM1       0.637100
     19 O18         -4.4940    -1.5510     3.6280 o          1 XM1      -0.630100
     20 C19         -2.8140    -2.5900     4.9190 c3         1 XM1      -0.177700
     21 C20         -2.6000    -1.8460     6.2390 c3         1 XM1      -0.015100
     22 C21         -3.8500    -3.6990     5.1210 c3         1 XM1       0.108800
     23 C22         -1.9910    -2.7830     7.2510 ca         1 XM1      -0.129300
     24 C23         -0.6160    -2.8890     7.3540 ca         1 XM1      -0.123500
     25 C24         -0.0570    -3.7470     8.2810 ca         1 XM1      -0.110500
     26 C25         -0.8730    -4.5010     9.1070 ca         1 XM1       0.039400
     27 C26         -2.2480    -4.3940     9.0030 ca         1 XM1      -0.110500
     28 C27         -2.8070    -3.5320     8.0780 ca         1 XM1      -0.123500
     29 H3           2.2850    -0.0000     2.1020 ha         1 XM1       0.153000
     30 H4           4.5900    -0.0000     0.8760 h4         1 XM1       0.181000
     31 HN5         -3.0860    -4.6660     3.5030 hn         1 XM1       0.458800
     32 HN5A        -4.4690    -5.3260     4.0700 hn         1 XM1       0.458800
     33 H9          -0.5140    -0.0090    -3.2380 h5         1 XM1       0.069100
     34 H12         -2.4070     0.8150     0.2710 h1         1 XM1       0.065700
     35 H12A        -2.4440    -0.9430     0.4900 h1         1 XM1       0.065700
     36 H13         -3.9660     0.0660     2.1030 h1         1 XM1       0.073200
     37 H13A        -2.6920     1.1650     2.6680 h1         1 XM1       0.073200
     38 H15         -0.5930    -0.1240     3.9170 h1         1 XM1       0.073200
     39 H15A        -0.7890    -1.8860     3.9960 h1         1 XM1       0.073200
     40 H16          0.7620    -1.1360     2.1590 h1         1 XM1       0.065700
     41 H16A        -0.6330    -2.0590     1.5710 h1         1 XM1       0.065700
     42 H19         -1.8770    -3.0270     4.5940 hc         1 XM1       0.077700
     43 H20         -3.5520    -1.4860     6.6080 hc         1 XM1       0.083200
     44 H20A        -1.9340    -1.0070     6.0770 hc         1 XM1       0.083200
     45 H21         -4.8040    -3.2580     5.3840 hx         1 XM1       0.124200
     46 H21A        -3.5250    -4.3570     5.9170 hx         1 XM1       0.124200
     47 H23          0.0220    -2.2980     6.7080 ha         1 XM1       0.135000
     48 H24          1.0200    -3.8300     8.3620 ha         1 XM1       0.160000
     49 H26         -2.8880    -4.9810     9.6510 ha         1 XM1       0.160000
     50 H27         -3.8840    -3.4480     7.9970 ha         1 XM1       0.135000
     51 HN6          4.1430     0.0000    -1.6540 hn         1 XM1       0.317700
     52 H53         -4.5170    -3.9340     3.2130 hn         1 XM1       0.458800
@<TRIPOS>BOND
     1     3     1 ar
     2     9     1 ar
     3     1    12 1
     4     2    26 1
     5     8     3 ar
     6     4     3 1
     7     5     4 2
     8     4    29 1
     9     7     5 1
    10     5    30 1
    11     6    22 1
    12     6    31 1
    13     6    32 1
    14     7     8 1
    15    11     8 ar
    16    10     9 ar
    17    11    10 ar
    18    10    33 1
    19    12    13 1
    20    12    17 1
    21    13    14 1
    22    13    34 1
    23    13    35 1
    24    14    15 1
    25    14    36 1
    26    14    37 1
    27    16    15 1
    28    15    18 1
    29    17    16 1
    30    16    38 1
    31    16    39 1
    32    17    40 1
    33    17    41 1
    34    18    19 2
    35    18    20 1
    36    20    21 1
    37    20    22 1
    38    20    42 1
    39    23    21 1
    40    21    43 1
    41    21    44 1
    42    22    45 1
    43    22    46 1
    44    24    23 ar
    45    28    23 ar
    46    25    24 ar
    47    24    47 1
    48    26    25 ar
    49    25    48 1
    50    26    27 ar
    51    27    28 ar
    52    27    49 1
    53    28    50 1
    54     7    51 1
    55    52     6 1
@<TRIPOS>SUBSTRUCTURE
     1 XM1         1 TEMP              0 ****  ****    0 ROOT
