@<TRIPOS>MOLECULE
XM5
   28    30     1     0     0
SMALL
bcc


@<TRIPOS>ATOM
      1 O15          0.0000     0.0000     0.0000 o          1 XM5      -0.700500
      2 C9           1.2200     0.0000     0.0000 c          1 XM5       0.628700
      3 N10          1.8740     0.0000     1.1750 n          1 XM5       0.076000
      4 C14          1.1100     0.0000     2.4240 c3         1 XM5       0.032300
      5 C3           3.2550     0.0000     1.2230 ca         1 XM5      -0.011400
      6 C4           3.9290     0.0010     2.4410 ca         1 XM5      -0.011900
      7 C5           5.3180     0.0010     2.4590 ca         1 XM5       0.115100
      8 O13          5.7360     0.0010     3.7590 os         1 XM5      -0.309900
      9 C12          4.5940    -0.4120     4.5320 c3         1 XM5       0.432200
     10 O11          3.4720     0.0000     3.7290 os         1 XM5      -0.310900
     11 C6           6.0360     0.0010     1.2660 ca         1 XM5      -0.129000
     12 C1           5.3900     0.0010     0.0650 ca         1 XM5      -0.023000
     13 C2           3.9920     0.0000     0.0250 ca         1 XM5      -0.136800
     14 C7           3.2680    -0.0010    -1.2520 cc         1 XM5       0.237900
     15 C8           1.9020    -0.0070    -1.2260 cd         1 XM5      -0.366200
     16 O16          3.9390    -0.0020    -2.4280 os         1 XM5      -0.299900
     17 C17          3.1540    -0.0020    -3.6220 c3         1 XM5       0.245700
     18 H14          1.3430    -0.8930     2.9910 h1         1 XM5       0.033367
     19 H14A         1.3710     0.8760     3.0070 h1         1 XM5       0.033367
     20 H14B         0.0500     0.0190     2.2000 h1         1 XM5       0.033367
     21 H12          4.5940    -1.4880     4.6620 h2         1 XM5       0.014700
     22 H12A         4.5810     0.0940     5.4900 h2         1 XM5       0.014700
     23 H6           7.1190     0.0030     1.2920 ha         1 XM5       0.118000
     24 H1           5.9570     0.0550    -0.8560 ha         1 XM5       0.122000
     25 H8           1.3440    -0.0160    -2.1540 ha         1 XM5       0.153000
     26 H17          2.5320    -0.8890    -3.6450 h1         1 XM5       0.004367
     27 H17A         3.8090     0.0020    -4.4850 h1         1 XM5       0.004367
     28 H17B         2.5260     0.8800    -3.6410 h1         1 XM5       0.004367
@<TRIPOS>BOND
     1     1     2 2   
     2     2     3 1   
     3     2    15 1   
     4     3     4 1   
     5     3     5 1   
     6     4    18 1   
     7     4    19 1   
     8     4    20 1   
     9     5     6 ar  
    10     5    13 ar  
    11     6     7 ar  
    12     6    10 1   
    13     7     8 1   
    14     7    11 ar  
    15     8     9 1   
    16     9    10 1   
    17     9    21 1   
    18     9    22 1   
    19    11    12 ar  
    20    11    23 1   
    21    12    13 ar  
    22    12    24 1   
    23    13    14 1   
    24    14    15 2   
    25    14    16 1   
    26    15    25 1   
    27    16    17 1   
    28    17    26 1   
    29    17    27 1   
    30    17    28 1   
@<TRIPOS>SUBSTRUCTURE
     1 XM5         1 TEMP              0 ****  ****    0 ROOT
