@<TRIPOS>MOLECULE
molecule
   67    72     1     0     0
SMALL
bcc


@<TRIPOS>ATOM
      1 C1           0.0000     0.0000     0.0000 ca         1 XMA       0.006000
      2 C2           1.3610     0.0000     0.0000 ca         1 XMA      -0.312500
      3 C3           0.0340    -0.0140     2.4350 ca         1 XMA       0.011000
      4 C4           1.4400    -0.0070     2.3950 ca         1 XMA      -0.128000
      5 C5           2.0780     0.0000     1.1940 ca         1 XMA      -0.048000
      6 C6          -0.6950    -0.0130     1.2210 ca         1 XMA      -0.069000
      7 C8          -2.1000    -0.0180     1.2600 ca         1 XMA      -0.089000
      8 C9          -0.6610    -0.0210     3.6560 ca         1 XMA      -0.126000
      9 C10         -2.7400    -0.0260     2.4610 ca         1 XMA      -0.129000
     10 C11         -2.0220    -0.0260     3.6570 ca         1 XMA       0.052400
     11 S12          2.2290     0.0100    -1.5340 sy         1 XMA       1.421200
     12 O13          3.5480     0.4380    -1.2280 o          1 XMA      -0.626800
     13 O14          1.3570     0.6320    -2.4670 o          1 XMA      -0.626800
     14 C15          1.8150    -3.2500    -3.7120 c          1 XMA       0.724500
     15 O16          1.0510    -3.8340    -4.4520 o          1 XMA      -0.629500
     16 C17          1.2890    -2.1760    -2.7960 c3         1 XMA       0.158800
     17 N18          2.3720    -1.5640    -2.0310 n3         1 XMA      -0.832500
     18 C19          4.1850    -2.8530    -3.0000 c3         1 XMA       0.284200
     19 C20          4.7050    -1.6930    -3.8510 c3         1 XMA       0.115400
     20 O21          5.7140    -0.9870    -3.1270 os         1 XMA      -0.391600
     21 C22          6.1440     0.0900    -3.9620 c3         1 XMA       0.118700
     22 C23          3.5840    -2.3190    -1.6950 c3         1 XMA       0.218800
     23 N24          3.1110    -3.5650    -3.7190 n          1 XMA      -0.508800
     24 C25          3.7940    -4.6970    -4.3740 c3         1 XMA       0.085000
     25 C26          8.2290    -7.4820     1.2900 ca         1 XMA       0.436700
     26 N27          6.4870    -7.0900    -1.9180 nh         1 XMA      -0.555000
     27 C28          7.4340    -7.4500    -0.9650 ca         1 XMA       0.113600
     28 C29          7.2650    -7.1090     0.3760 ca         1 XMA      -0.287300
     29 C30          7.1270    -6.1210    -2.8150 c3         1 XMA       0.144300
     30 C31          8.5860    -8.1500    -1.3290 ca         1 XMA      -0.287300
     31 C32          5.4040    -6.3900    -1.2200 c3         1 XMA       0.144300
     32 C33          4.8630    -5.0510    -3.3150 c3         1 XMA       0.114800
     33 O34          5.2450    -3.7760    -2.7300 os         1 XMA      -0.382600
     34 C35          6.1430    -5.7070    -3.9120 c3         1 XMA      -0.072900
     35 N36          9.3050    -8.1440     0.9060 nb         1 XMA      -0.706000
     36 C37          9.5040    -8.4810    -0.3550 ca         1 XMA       0.436700
     37 C38          4.2290    -5.9670    -2.2760 c3         1 XMA      -0.072900
     38 H1          -0.5450    -0.0000    -0.9360 ha         1 XMA       0.151000
     39 H4           2.0110    -0.0070     3.3150 ha         1 XMA       0.143000
     40 H5           3.1610     0.0000     1.1660 ha         1 XMA       0.154000
     41 H8          -2.6700    -0.0180     0.3390 ha         1 XMA       0.144000
     42 H9          -0.1190     0.0860     4.5890 ha         1 XMA       0.152000
     43 H10         -3.8230    -0.0320     2.4890 ha         1 XMA       0.148000
     44 H171         0.7990    -1.4140    -3.3900 h1         1 XMA       0.087700
     45 H172         0.5740    -2.6150    -2.1100 h1         1 XMA       0.087700
     46 H201         3.8880    -1.0200    -4.0810 h1         1 XMA       0.039200
     47 H202         5.1250    -2.0800    -4.7710 h1         1 XMA       0.039200
     48 H221         5.2810     0.5600    -4.4180 h1         1 XMA       0.034033
     49 H222         6.7980    -0.2910    -4.7360 h1         1 XMA       0.034033
     50 H223         6.6780     0.8190    -3.3640 h1         1 XMA       0.034033
     51 H231         4.2930    -1.5990    -1.3060 h1         1 XMA       0.095200
     52 H232         3.2550    -3.1860    -1.1350 h1         1 XMA       0.095200
     53 H251         4.2570    -4.3840    -5.3030 h1         1 XMA       0.074200
     54 H252         3.1120    -5.5240    -4.5290 h1         1 XMA       0.074200
     55 H29          6.3850    -6.5660     0.6980 ha         1 XMA       0.145000
     56 H301         7.4390    -5.2550    -2.2450 h1         1 XMA       0.054950
     57 H302         7.9900    -6.5800    -3.2830 h1         1 XMA       0.054950
     58 H31          8.7590    -8.4220    -2.3630 ha         1 XMA       0.145000
     59 H321         4.9690    -7.0500    -0.4790 h1         1 XMA       0.054950
     60 H322         5.8020    -5.5070    -0.7340 h1         1 XMA       0.054950
     61 H351         5.8400    -6.5830    -4.4730 hc         1 XMA       0.061950
     62 H352         6.6200    -4.9940    -4.5730 hc         1 XMA       0.061950
     63 H37         10.4010    -9.0240    -0.6290 h4         1 XMA       0.023100
     64 H381         3.8360    -6.8560    -2.7540 hc         1 XMA       0.061950
     65 H382         3.4360    -5.4530    -1.7470 hc         1 XMA       0.061950
     66 Cl7         -2.8770    -0.0340     5.1670 cl         1 XMA      -0.100400
     67 H26          8.1050    -7.2230     2.3350 h4         1 XMA       0.023100
@<TRIPOS>BOND
     1     1     2 ar
     2     1     6 ar
     3     1    38 1
     4     2     5 ar
     5     2    11 1
     6     3     4 ar
     7     3     6 ar
     8     3     8 ar
     9     4     5 ar
    10     4    39 1
    11     5    40 1
    12     6     7 ar
    13    66    10 1
    14     7     9 ar
    15     7    41 1
    16     8    10 ar
    17     8    42 1
    18     9    10 ar
    19     9    43 1
    20    11    12 2
    21    11    13 2
    22    11    17 1
    23    14    15 2
    24    14    16 1
    25    14    23 1
    26    16    17 1
    27    16    44 1
    28    16    45 1
    29    17    22 1
    30    18    19 1
    31    18    22 1
    32    18    23 1
    33    18    33 1
    34    19    20 1
    35    19    46 1
    36    19    47 1
    37    20    21 1
    38    21    48 1
    39    21    49 1
    40    21    50 1
    41    22    51 1
    42    22    52 1
    43    23    24 1
    44    24    32 1
    45    24    53 1
    46    24    54 1
    47    25    28 ar
    48    25    35 ar
    49    25    67 1
    50    26    27 1
    51    26    29 1
    52    26    31 1
    53    27    28 ar
    54    27    30 ar
    55    28    55 1
    56    29    34 1
    57    29    56 1
    58    29    57 1
    59    30    36 ar
    60    30    58 1
    61    31    37 1
    62    31    59 1
    63    31    60 1
    64    32    33 1
    65    32    34 1
    66    32    37 1
    67    34    61 1
    68    34    62 1
    69    35    36 ar
    70    36    63 1
    71    37    64 1
    72    37    65 1
@<TRIPOS>SUBSTRUCTURE
     1 XMA         1 TEMP              0 ****  ****    0 ROOT
