@<TRIPOS>MOLECULE
molecule
   75    79     1     0     0
SMALL
bcc


@<TRIPOS>ATOM
      1 C1           0.0000     0.0000     0.0000 c          1 XMB       0.665100
      2 O2          -0.6060     1.0470    -0.0800 o          1 XMB      -0.551100
      3 N3          -0.6740    -1.1650     0.0860 n          1 XMB      -0.514800
      4 C4          -2.1330    -1.1720    -0.0360 c3         1 XMB       0.119500
      5 C5          -2.5390    -1.9930    -1.2620 c3         1 XMB      -0.227100
      6 S6          -1.9290    -3.6930    -1.0740 s6         1 XMB       1.106000
      7 O7          -2.1420    -4.3980    -2.2890 o          1 XMB      -0.606800
      8 O8          -2.4220    -4.2290     0.1460 o          1 XMB      -0.606800
      9 C9           0.0580    -2.4150     0.2970 c3         1 XMB       0.119500
     10 C10         -0.1560    -3.3460    -0.8930 c3         1 XMB      -0.227100
     11 C11          4.8430    -1.9070     4.0350 ca         1 XMB       0.008000
     12 C12          3.9960    -0.8410     3.9930 ca         1 XMB      -0.318500
     13 C13          3.5000    -2.8600     5.8300 ca         1 XMB       0.011000
     14 C14          2.6480    -1.7450     5.7570 ca         1 XMB      -0.128000
     15 C15          2.9020    -0.7610     4.8520 ca         1 XMB      -0.053000
     16 C16          4.6130    -2.9420     4.9560 ca         1 XMB      -0.070000
     17 C17          5.4660    -4.0570     5.0280 ca         1 XMB      -0.090000
     18 C18          3.2660    -3.8980     6.7480 ca         1 XMB      -0.125000
     19 C19          5.2120    -5.0410     5.9320 ca         1 XMB      -0.129000
     20 C20          4.1160    -4.9610     6.7930 ca         1 XMB       0.052400
     21 Cl21         3.8280    -6.2390     7.9320 cl         1 XMB      -0.098400
     22 S22          4.2890     0.4550     2.8360 sy         1 XMB       1.423200
     23 O23          3.6290     1.5980     3.3620 o          1 XMB      -0.625800
     24 N24          3.4800     0.0690     1.4440 n7         1 XMB      -0.921100
     25 C25          1.5070     0.0000     0.0000 c3         1 XMB       0.075500
     26 C26          2.0160     0.0000     1.4430 c3         1 XMB       0.230800
     27 N27          1.9960     1.2000    -0.6920 n7         1 XMB      -0.767200
     28 O28          5.6710     0.3790     2.5130 o          1 XMB      -0.625800
     29 C29          2.0220     0.8790    -2.1260 c3         1 XMB       0.146800
     30 C30          2.1080     7.3040    -6.6310 ca         1 XMB       0.436200
     31 N31          2.0150     3.9840    -5.0660 nh         1 XMB      -0.545000
     32 C32          2.4390     5.0860    -5.8020 ca         1 XMB       0.110600
     33 C33          1.6510     6.2340    -5.8900 ca         1 XMB      -0.288800
     34 C34          3.0660     2.9680    -5.1840 c3         1 XMB       0.140300
     35 C35          3.6640     5.0730    -6.4680 ca         1 XMB      -0.288800
     36 C36          1.9730     4.4070    -3.6610 c3         1 XMB       0.140300
     37 C37          2.5260     2.0920    -2.9100 c3         1 XMB      -0.072700
     38 C38          2.6730     1.7210    -4.3890 c3         1 XMB      -0.073900
     39 N39          3.2720     7.2510    -7.2510 nb         1 XMB      -0.708000
     40 C40          4.0460     6.1830    -7.1920 ca         1 XMB       0.436200
     41 C41          1.5190     3.2400    -2.7830 c3         1 XMB      -0.073900
     42 H41         -2.5660    -1.6150     0.8530 h1         1 XMB       0.077950
     43 H42         -2.4900    -0.1560    -0.1500 h1         1 XMB       0.077950
     44 H51         -3.6190    -2.0060    -1.3460 h1         1 XMB       0.109450
     45 H52         -2.1070    -1.5510    -2.1510 h1         1 XMB       0.109450
     46 H91          1.1150    -2.1990     0.3980 h1         1 XMB       0.077950
     47 H92         -0.3050    -2.8950     1.1970 h1         1 XMB       0.077950
     48 H101         0.2110    -2.8700    -1.7950 h1         1 XMB       0.109450
     49 H102         0.3770    -4.2740    -0.7250 h1         1 XMB       0.109450
     50 H14          1.7930    -1.6680     6.4190 ha         1 XMB       0.144000
     51 H15          2.2430     0.0970     4.7980 ha         1 XMB       0.153000
     52 H17          6.3210    -4.1330     4.3670 ha         1 XMB       0.144000
     53 H18          2.4190    -3.8490     7.4220 ha         1 XMB       0.153000
     54 H19          5.8730    -5.8980     5.9890 ha         1 XMB       0.148000
     55 H24          3.9920    -0.1640     0.6170 hn         1 XMB       0.449800
     56 H25          1.8690    -0.8840    -0.5110 h1         1 XMB       0.038700
     57 H261         1.6970    -0.9090     1.9390 h1         1 XMB       0.066700
     58 H262         1.6140     0.8580     1.9680 h1         1 XMB       0.066700
     59 H27          2.9240     1.4100    -0.3800 hn         1 XMB       0.366800
     60 H291         2.6850     0.0390    -2.2960 h1         1 XMB       0.035200
     61 H292         1.0230     0.6240    -2.4570 h1         1 XMB       0.035200
     62 H30          1.5040     8.2000    -6.7050 h4         1 XMB       0.022600
     63 H33          0.6950     6.2840    -5.3830 ha         1 XMB       0.145500
     64 H341         3.9950     3.3650    -4.7920 h1         1 XMB       0.046950
     65 H342         3.1930     2.7030    -6.2270 h1         1 XMB       0.046950
     66 H35          4.3040     4.2000    -6.4230 ha         1 XMB       0.145500
     67 H361         2.9610     4.7250    -3.3520 h1         1 XMB       0.046950
     68 H362         1.2750     5.2290    -3.5540 h1         1 XMB       0.046950
     69 H37          3.4860     2.4090    -2.5210 hc         1 XMB       0.048700
     70 H381         3.4420     0.9670    -4.4970 hc         1 XMB       0.059450
     71 H382         1.7290     1.3400    -4.7600 hc         1 XMB       0.059450
     72 H40          4.9950     6.1800    -7.7130 h4         1 XMB       0.022600
     73 H411         1.4690     3.5630    -1.7500 hc         1 XMB       0.059450
     74 H412         0.5430     2.9010    -3.1100 hc         1 XMB       0.059450
     75 H11          5.6900    -1.9560     3.3610 ha         1 XMB       0.154000
@<TRIPOS>BOND
     1     1     2 2
     2     1     3 1
     3     1    25 1
     4     3     4 1
     5     3     9 1
     6     4     5 1
     7     4    42 1
     8     4    43 1
     9     5     6 1
    10     5    44 1
    11     5    45 1
    12     6     7 2
    13     6     8 2
    14     6    10 1
    15     9    10 1
    16     9    46 1
    17     9    47 1
    18    10    48 1
    19    10    49 1
    20    11    12 ar
    21    11    16 ar
    22    11    75 1
    23    12    15 ar
    24    12    22 1
    25    13    14 ar
    26    13    16 ar
    27    13    18 ar
    28    14    15 ar
    29    14    50 1
    30    15    51 1
    31    16    17 ar
    32    17    19 ar
    33    17    52 1
    34    18    20 ar
    35    18    53 1
    36    19    20 ar
    37    19    54 1
    38    20    21 1
    39    22    23 2
    40    22    24 1
    41    22    28 2
    42    24    26 1
    43    24    55 1
    44    25    26 1
    45    25    27 1
    46    25    56 1
    47    26    57 1
    48    26    58 1
    49    27    29 1
    50    27    59 1
    51    29    37 1
    52    29    60 1
    53    29    61 1
    54    30    33 ar
    55    30    39 ar
    56    30    62 1
    57    31    32 1
    58    31    34 1
    59    31    36 1
    60    32    33 ar
    61    32    35 ar
    62    33    63 1
    63    34    38 1
    64    34    64 1
    65    34    65 1
    66    35    40 ar
    67    35    66 1
    68    36    41 1
    69    36    67 1
    70    36    68 1
    71    37    38 1
    72    37    41 1
    73    37    69 1
    74    38    70 1
    75    38    71 1
    76    39    40 ar
    77    40    72 1
    78    41    73 1
    79    41    74 1
@<TRIPOS>SUBSTRUCTURE
     1 XMB         1 TEMP              0 ****  ****    0 ROOT
