@<TRIPOS>MOLECULE
molecule
   76    81     1     0     0
SMALL
bcc


@<TRIPOS>ATOM
      1 C1           0.0000     0.0000     0.0000 ca         1 XMC       0.011000
      2 C2           1.3610     0.0000     0.0000 ca         1 XMC      -0.315500
      3 C3           0.0340    -0.0010     2.4360 ca         1 XMC       0.012000
      4 C4           1.4380    -0.0010     2.3960 ca         1 XMC      -0.126000
      5 C5           2.0780     0.0000     1.1930 ca         1 XMC      -0.051000
      6 C6          -0.6950    -0.0010     1.2210 ca         1 XMC      -0.068000
      7 C8          -2.1000    -0.0020     1.2600 ca         1 XMC      -0.088000
      8 C9          -0.6610     0.0050     3.6570 ca         1 XMC      -0.126000
      9 C10         -2.7400    -0.0020     2.4610 ca         1 XMC      -0.128000
     10 C11         -2.0230    -0.0010     3.6580 ca         1 XMC       0.053400
     11 S12          2.2290     0.0000    -1.5330 sy         1 XMC       1.427200
     12 O13          3.5180    -0.5250    -1.2480 o          1 XMC      -0.631800
     13 C14          2.2260     3.1130    -3.8210 c          1 XMC       0.701500
     14 O15          1.5920     3.5960    -4.7340 o          1 XMC      -0.638500
     15 C16          1.4950     2.3070    -2.7880 c3         1 XMC       0.162800
     16 N17          2.4720     1.5800    -1.9650 n3         1 XMC      -0.827500
     17 C18          4.4440     2.7310    -2.8020 c3         1 XMC       0.028700
     18 C19          5.4970     3.7410    -2.4260 c          1 XMC       0.651100
     19 O20          5.2220     4.9210    -2.3960 o          1 XMC      -0.592100
     20 N21          6.7460     3.3320    -2.1230 n          1 XMC      -0.493800
     21 C22          7.8270     4.3000    -1.8710 c3         1 XMC       0.065000
     22 C23          8.5610     3.8750    -0.5940 c3         1 XMC       0.109400
     23 O24          9.0200     2.5320    -0.7310 os         1 XMC      -0.395600
     24 C25          7.0780     1.9020    -2.0240 c3         1 XMC       0.065000
     25 C26          7.8760     1.6790    -0.7400 c3         1 XMC       0.109400
     26 C27          3.6800     2.3110    -1.5450 c3         1 XMC       0.229800
     27 N28          3.5440     3.3200    -3.7820 n          1 XMC      -0.456800
     28 O29          1.3200    -0.5260    -2.4910 o          1 XMC      -0.631800
     29 C30          4.1240     4.2010    -4.7980 c3         1 XMC       0.101000
     30 C31          7.8250     0.0340   -10.3210 ca         1 XMC       0.435700
     31 N32          6.3670     2.4820    -8.0070 nh         1 XMC      -0.547000
     32 C33          6.6490     1.7650    -9.1660 ca         1 XMC       0.110600
     33 C34          7.5740     0.7210    -9.1530 ca         1 XMC      -0.288300
     34 C35          5.3670     3.4910    -8.3690 c3         1 XMC       0.141300
     35 C36          6.0100     2.0660   -10.3670 ca         1 XMC      -0.288300
     36 C37          5.7260     1.5470    -7.0770 c3         1 XMC       0.141300
     37 C38          4.3910     3.4010    -6.0740 c3         1 XMC      -0.097700
     38 C39          4.9980     4.3210    -7.1380 c3         1 XMC      -0.077400
     39 N40          7.2030     0.3540   -11.4420 nb         1 XMC      -0.707000
     40 C41          6.3220     1.3350   -11.4940 ca         1 XMC       0.435700
     41 C42          5.3780     2.2690    -5.7740 c3         1 XMC      -0.077400
     42 H1          -0.5440    -0.0000    -0.9370 ha         1 XMC       0.155000
     43 H4           2.0090    -0.0010     3.3160 ha         1 XMC       0.142000
     44 H5           3.1610    -0.0000     1.1650 ha         1 XMC       0.146000
     45 H8          -2.6710    -0.0020     0.3390 ha         1 XMC       0.146000
     46 H9          -0.1190     0.1170     4.5880 ha         1 XMC       0.152000
     47 H10         -3.8230    -0.0020     2.4890 ha         1 XMC       0.149000
     48 H161         0.9140     2.9690    -2.1570 h1         1 XMC       0.090200
     49 H162         0.8400     1.5980    -3.2800 h1         1 XMC       0.090200
     50 H18          4.9190     1.8590    -3.2350 h1         1 XMC       0.071700
     51 H221         7.4070     5.2890    -1.7370 h1         1 XMC       0.068950
     52 H222         8.5190     4.3000    -2.7050 h1         1 XMC       0.068950
     53 H231         7.8820     3.9380     0.2480 h1         1 XMC       0.057700
     54 H232         9.4080     4.5300    -0.4310 h1         1 XMC       0.057700
     55 H251         6.1660     1.3180    -1.9910 h1         1 XMC       0.068950
     56 H252         7.6750     1.6070    -2.8790 h1         1 XMC       0.068950
     57 H261         7.2520     1.9070     0.1150 h1         1 XMC       0.057700
     58 H262         8.1990     0.6460    -0.6930 h1         1 XMC       0.057700
     59 H271         4.3030     1.6660    -0.9380 h1         1 XMC       0.074700
     60 H272         3.3950     3.1910    -0.9810 h1         1 XMC       0.074700
     61 H301         5.0550     4.6140    -4.4290 h1         1 XMC       0.076200
     62 H302         3.4330     5.0060    -5.0150 h1         1 XMC       0.076200
     63 H34          8.0870     0.4530    -8.2370 ha         1 XMC       0.145500
     64 H351         5.7760     4.1430    -9.1320 h1         1 XMC       0.047700
     65 H352         4.4800     2.9970    -8.7480 h1         1 XMC       0.047700
     66 H36          5.2860     2.8700   -10.4180 ha         1 XMC       0.145500
     67 H371         4.8200     1.1590    -7.5260 h1         1 XMC       0.047700
     68 H372         6.4060     0.7310    -6.8640 h1         1 XMC       0.047700
     69 H38          3.4630     2.9820    -6.4460 hc         1 XMC       0.072700
     70 H391         5.8880     4.7930    -6.7410 hc         1 XMC       0.051950
     71 H392         4.2740     5.0770    -7.4170 hc         1 XMC       0.051950
     72 H41          5.8320     1.5650   -12.4330 h4         1 XMC       0.022600
     73 H421         6.2790     2.6820    -5.3380 hc         1 XMC       0.051950
     74 H422         4.9230     1.5680    -5.0840 hc         1 XMC       0.051950
     75 Cl7         -2.8770    -0.0010     5.1680 cl         1 XMC      -0.097400
     76 H31          8.5420    -0.7780   -10.3210 h4         1 XMC       0.022600
@<TRIPOS>BOND
     1     1     2 ar
     2     1     6 ar
     3     1    42 1
     4     2     5 ar
     5     2    11 1
     6     3     4 ar
     7     3     6 ar
     8     3     8 ar
     9     4     5 ar
    10     4    43 1
    11     5    44 1
    12     6     7 ar
    13    75    10 1
    14     7     9 ar
    15     7    45 1
    16     8    10 ar
    17     8    46 1
    18     9    10 ar
    19     9    47 1
    20    11    12 2
    21    11    16 1
    22    11    28 2
    23    13    14 2
    24    13    15 1
    25    13    27 1
    26    15    16 1
    27    15    48 1
    28    15    49 1
    29    16    26 1
    30    17    18 1
    31    17    26 1
    32    17    27 1
    33    17    50 1
    34    18    19 2
    35    18    20 1
    36    20    21 1
    37    20    24 1
    38    21    22 1
    39    21    51 1
    40    21    52 1
    41    22    23 1
    42    22    53 1
    43    22    54 1
    44    23    25 1
    45    24    25 1
    46    24    55 1
    47    24    56 1
    48    25    57 1
    49    25    58 1
    50    26    59 1
    51    26    60 1
    52    27    29 1
    53    29    37 1
    54    29    61 1
    55    29    62 1
    56    30    33 ar
    57    30    39 ar
    58    30    76 1
    59    31    32 1
    60    31    34 1
    61    31    36 1
    62    32    33 ar
    63    32    35 ar
    64    33    63 1
    65    34    38 1
    66    34    64 1
    67    34    65 1
    68    35    40 ar
    69    35    66 1
    70    36    41 1
    71    36    67 1
    72    36    68 1
    73    37    38 1
    74    37    41 1
    75    37    69 1
    76    38    70 1
    77    38    71 1
    78    39    40 ar
    79    40    72 1
    80    41    73 1
    81    41    74 1
@<TRIPOS>SUBSTRUCTURE
     1 XMC         1 TEMP              0 ****  ****    0 ROOT
