@<TRIPOS>MOLECULE
XMD
   70    74     1     0     0
SMALL
bcc


@<TRIPOS>ATOM
      1 C1           0.0000     0.0000     0.0000 ca         1 XMD       0.041000
      2 C2           1.3610     0.0000     0.0000 ca         1 XMD      -0.163500
      3 C3           0.0350    -0.0140     2.4360 ca         1 XMD       0.012000
      4 C4           1.4390    -0.0070     2.3960 ca         1 XMD      -0.106000
      5 C5           2.0780     0.0000     1.1940 ca         1 XMD      -0.017000
      6 C6          -0.6960    -0.0140     1.2220 ca         1 XMD      -0.079000
      7 C8          -2.0990    -0.0190     1.2610 ca         1 XMD      -0.057000
      8 C9          -0.6600    -0.0210     3.6570 ca         1 XMD      -0.101000
      9 C10         -2.7390    -0.0250     2.4620 ca         1 XMD      -0.107000
     10 C11         -2.0220    -0.0270     3.6580 ca         1 XMD      -0.012600
     11 S12          2.2290     0.0100    -1.5340 sy         1 XMD       1.062200
     12 O13          3.5150     0.5390    -1.2460 o          1 XMD      -0.579800
     13 C14          2.1850    -2.7120    -4.0960 c3         1 XMD      -0.041300
     14 C15          1.3240    -3.7220    -4.8090 c          1 XMD       0.690100
     15 O16          0.4480    -3.3190    -5.7410 os         1 XMD      -0.415900
     16 C17         -0.3800    -4.2930    -6.4290 c3         1 XMD       0.234400
     17 C18         -1.2850    -3.5750    -7.4330 c3         1 XMD      -0.002100
     18 O19          1.4250    -4.8960    -4.5420 o          1 XMD      -0.573000
     19 C20          1.5010    -2.3000    -2.7920 c3         1 XMD       0.232800
     20 N21          2.4790    -1.5680    -1.9710 n3         1 XMD      -0.548500
     21 C22          4.2030    -3.0920    -2.7210 c          1 XMD       0.616500
     22 O23          5.3140    -3.5710    -2.6490 o          1 XMD      -0.681500
     23 C24          3.6880    -2.2940    -1.5540 c3         1 XMD       0.166800
     24 N25          3.4920    -3.2960    -3.8310 n          1 XMD      -0.109800
     25 O26          1.3180     0.5340    -2.4890 o          1 XMD      -0.579800
     26 C27          4.0680    -4.1720    -4.8550 c3         1 XMD       0.025000
     27 C28          6.9360    -0.1780   -10.9700 ca         1 XMD       0.427200
     28 N29          5.7340    -2.5590    -8.4470 nh         1 XMD      -0.347000
     29 C30          6.5760    -1.8370    -9.2860 ca         1 XMD       0.042600
     30 C31          6.0670    -0.8730   -10.1550 ca         1 XMD      -0.268300
     31 C32          6.5850    -3.4740    -7.6810 c3         1 XMD       0.126800
     32 C33          7.9540    -2.0550    -9.2760 ca         1 XMD      -0.268300
     33 C34          5.1590    -1.5990    -7.4990 c3         1 XMD       0.126800
     34 C35          5.0170    -3.3640    -5.7410 c3         1 XMD      -0.077700
     35 C36          5.7240    -4.3020    -6.7240 c3         1 XMD      -0.027900
     36 N37          8.2340    -0.4190   -10.9360 nb         1 XMD      -0.604000
     37 C38          8.7540    -1.3230   -10.1270 ca         1 XMD       0.427200
     38 C39          4.2200    -2.3240    -6.5330 c3         1 XMD      -0.027900
     39 H1          -0.5440    -0.0000    -0.9370 ha         1 XMD       0.123000
     40 H4           2.0110    -0.0070     3.3160 ha         1 XMD       0.115000
     41 H5           3.1610     0.0000     1.1660 ha         1 XMD       0.125000
     42 H8          -2.6700    -0.0170     0.3410 ha         1 XMD       0.111000
     43 H9          -0.1170    -0.1300     4.5890 ha         1 XMD       0.123000
     44 H10         -3.8220    -0.0290     2.4900 ha         1 XMD       0.117000
     45 H14          2.3090    -1.8370    -4.7220 h1         1 XMD       0.060700
     46 H171         0.2520    -5.0000    -6.9530 h1         1 XMD       0.008700
     47 H172        -0.9910    -4.8220    -5.7070 h1         1 XMD       0.008700
     48 H181        -1.9030    -2.8550    -6.9120 hc         1 XMD       0.013033
     49 H182        -1.9170    -4.2990    -7.9330 hc         1 XMD       0.013033
     50 H183        -0.6740    -3.0620    -8.1670 hc         1 XMD       0.013033
     51 H201         0.6560    -1.6580    -3.0110 h1         1 XMD       0.039200
     52 H202         1.1680    -3.1830    -2.2600 h1         1 XMD       0.039200
     53 H241         3.4450    -2.9630    -0.7380 h1         1 XMD       0.052200
     54 H242         4.4440    -1.5860    -1.2380 h1         1 XMD       0.052200
     55 H271         3.2730    -4.5880    -5.4630 h1         1 XMD       0.050700
     56 H272         4.6160    -4.9750    -4.3770 h1         1 XMD       0.050700
     57 H31          5.0030    -0.6700   -10.1890 ha         1 XMD       0.129500
     58 H321         7.3050    -2.9000    -7.1100 h1         1 XMD       0.023950
     59 H322         7.1030    -4.1370    -8.3620 h1         1 XMD       0.023950
     60 H33          8.3880    -2.7950    -8.6150 ha         1 XMD       0.129500
     61 H341         5.9560    -1.1270    -6.9380 h1         1 XMD       0.023950
     62 H342         4.6010    -0.8470    -8.0440 h1         1 XMD       0.023950
     63 H35          5.7550    -2.8620    -5.1270 hc         1 XMD       0.052700
     64 H361         6.3560    -4.9900    -6.1750 hc         1 XMD       0.025200
     65 H362         4.9850    -4.8540    -7.2900 hc         1 XMD       0.025200
     66 H38          9.8250    -1.4880   -10.1280 h4         1 XMD      -0.021900
     67 H391         3.7830    -1.6070    -5.8490 hc         1 XMD       0.025200
     68 H392         3.4380    -2.8200    -7.0950 hc         1 XMD       0.025200
     69 Cl7         -2.8760    -0.0360     5.1690 cl         1 XMD      -0.016400
     70 H28          6.5490     0.5730   -11.6480 h4         1 XMD      -0.021900
@<TRIPOS>BOND
     1     1     2 ar  
     2     1     6 ar  
     3     1    39 1   
     4     2     5 ar  
     5     2    11 1   
     6     3     4 ar  
     7     3     6 ar  
     8     3     8 ar  
     9     4     5 ar  
    10     4    40 1   
    11     5    41 1   
    12     6     7 ar  
    13     7     9 ar  
    14     7    42 1   
    15     8    10 ar  
    16     8    43 1   
    17     9    10 ar  
    18     9    44 1   
    19    10    69 1   
    20    11    12 2   
    21    11    20 1   
    22    11    25 2   
    23    13    14 1   
    24    13    19 1   
    25    13    24 1   
    26    13    45 1   
    27    14    15 1   
    28    14    18 2   
    29    15    16 1   
    30    16    17 1   
    31    16    46 1   
    32    16    47 1   
    33    17    48 1   
    34    17    49 1   
    35    17    50 1   
    36    19    20 1   
    37    19    51 1   
    38    19    52 1   
    39    20    23 1   
    40    21    22 2   
    41    21    23 1   
    42    21    24 1   
    43    23    53 1   
    44    23    54 1   
    45    24    26 1   
    46    26    34 1   
    47    26    55 1   
    48    26    56 1   
    49    27    30 ar  
    50    27    36 ar  
    51    27    70 1   
    52    28    29 1   
    53    28    31 1   
    54    28    33 1   
    55    29    30 ar  
    56    29    32 ar  
    57    30    57 1   
    58    31    35 1   
    59    31    58 1   
    60    31    59 1   
    61    32    37 ar  
    62    32    60 1   
    63    33    38 1   
    64    33    61 1   
    65    33    62 1   
    66    34    35 1   
    67    34    38 1   
    68    34    63 1   
    69    35    64 1   
    70    35    65 1   
    71    36    37 ar  
    72    37    66 1   
    73    38    67 1   
    74    38    68 1   
@<TRIPOS>SUBSTRUCTURE
     1 XMD         1 TEMP              0 ****  ****    0 ROOT
