@<TRIPOS>MOLECULE
XMG
   64    68     1     0     0
SMALL
bcc


@<TRIPOS>ATOM
      1 C1           0.0000     0.0000     0.0000 c3         1 XMG       0.119800
      2 S2           4.8940    -2.1880     1.8700 sy         1 XMG       1.046200
      3 O3           4.7530    -2.8390     3.1250 o          1 XMG      -0.600800
      4 C4           2.3570     0.0000     0.0000 c3         1 XMG       0.097800
      5 C5           3.6300     0.0000     0.8520 c3         1 XMG       0.244800
      6 N6           3.5930    -1.1710     1.7420 n3         1 XMG      -0.527500
      7 C7           1.1680    -1.3230     1.5600 c3         1 XMG      -0.017500
      8 C8           2.3630    -1.4100     2.5150 c3         1 XMG       0.254800
      9 N9           1.1790    -0.0250     0.8760 n3         1 XMG      -0.476600
     10 O10          6.0210    -1.4260     1.4610 o          1 XMG      -0.600800
     11 C11          4.0370    -4.5910     0.9730 ca         1 XMG       0.057000
     12 C12          4.7000    -3.4480     0.6530 ca         1 XMG      -0.158500
     13 C13          4.4180    -5.4050    -1.2930 ca         1 XMG       0.009000
     14 C14          5.1020    -4.2120    -1.5840 ca         1 XMG      -0.131000
     15 C15          5.2340    -3.2590    -0.6210 ca         1 XMG      -0.008000
     16 C16          3.8750    -5.5960     0.0030 ca         1 XMG      -0.076000
     17 C18          3.1910    -6.7890     0.2950 ca         1 XMG      -0.037000
     18 C19          4.2620    -6.4110    -2.2600 ca         1 XMG      -0.109000
     19 C20          3.0600    -7.7420    -0.6670 ca         1 XMG      -0.125000
     20 C21          3.5930    -7.5540    -1.9420 ca         1 XMG      -0.008600
     21 C22         -0.1110    -1.4670     2.3430 c          1 XMG       0.977600
     22 O23         -0.6640    -0.4880     2.7820 o          1 XMG      -0.879800
     23 O24         -0.6360    -2.6850     2.5520 o          1 XMG      -0.879800
     24 C25         -2.2970     6.5420    -3.1310 ca         1 XMG       0.389700
     25 N26         -2.0140     3.6730    -0.8590 nh         1 XMG      -0.341000
     26 C27         -2.2340     4.9590    -1.3410 ca         1 XMG       0.121600
     27 C28         -2.0620     5.2560    -2.6930 ca         1 XMG      -0.269800
     28 C29         -1.6190     2.8540    -2.0100 c3         1 XMG       0.126800
     29 C30         -2.6270     5.9880    -0.4830 ca         1 XMG      -0.269800
     30 C31         -0.8560     3.7520     0.0390 c3         1 XMG       0.126800
     31 C32         -0.2000     1.4150    -0.5460 c3         1 XMG      -0.054700
     32 C33         -1.3510     1.4180    -1.5550 c3         1 XMG      -0.026900
     33 N34         -2.6670     7.4890    -2.2880 nb         1 XMG      -0.643000
     34 C35         -2.8340     7.2490    -1.0000 ca         1 XMG       0.389700
     35 C36         -0.5460     2.3650     0.6050 c3         1 XMG      -0.026900
     36 H11A         0.1480    -0.6880    -0.8240 h1         1 XMG       0.038200
     37 H12         -0.8760    -0.2960     0.5650 h1         1 XMG       0.038200
     38 H41          2.3500    -0.8770    -0.6360 h1         1 XMG       0.006200
     39 H42          2.3320     0.8950    -0.6100 h1         1 XMG       0.006200
     40 H51          4.4980    -0.0600     0.2070 h1         1 XMG       0.016200
     41 H52          3.6710     0.9060     1.4440 h1         1 XMG       0.016200
     42 H7           1.2380    -2.1160     0.8250 h1         1 XMG       0.015700
     43 H81          2.4010    -2.3970     2.9610 h1         1 XMG       0.036200
     44 H82          2.2670    -0.6570     3.2870 h1         1 XMG       0.036200
     45 H14          5.5230    -4.0520    -2.5700 ha         1 XMG       0.106000
     46 H15          5.7650    -2.3420    -0.8470 ha         1 XMG       0.120000
     47 H18          2.7720    -6.9490     1.2810 ha         1 XMG       0.118000
     48 H19          4.7630    -6.3250    -3.2170 ha         1 XMG       0.115000
     49 H20          2.5330    -8.6600    -0.4390 ha         1 XMG       0.113000
     50 H28         -1.8850     4.8610    -3.6860 ha         1 XMG       0.137500
     51 H291        -2.4180     2.8550    -2.7420 h1         1 XMG       0.012700
     52 H292        -0.7190     3.2650    -2.4510 h1         1 XMG       0.012700
     53 H30         -3.0400     6.0320     0.5170 ha         1 XMG       0.137500
     54 H311        -1.0790     4.4300     0.8530 h1         1 XMG       0.012700
     55 H312         0.0020     4.1140    -0.5140 h1         1 XMG       0.012700
     56 H32          0.7070     1.7530    -1.0320 hc         1 XMG       0.015700
     57 H331        -1.0810     0.8130    -2.4120 hc         1 XMG       0.037200
     58 H332        -2.2420     1.0160    -1.0880 hc         1 XMG       0.037200
     59 H35         -3.1600     8.1460    -0.4870 h4         1 XMG      -0.025900
     60 H361        -1.4140     1.9890     1.1340 hc         1 XMG       0.037200
     61 H362         0.2960     2.4320     1.2830 hc         1 XMG       0.037200
     62 Cl17         3.4030    -8.7960    -3.1400 cl         1 XMG      -0.049400
     63 H25         -2.1760     6.7800    -4.1810 h4         1 XMG      -0.025900
     64 H11          3.7360    -4.7740     1.9980 ha         1 XMG       0.137000
@<TRIPOS>BOND
     1     1     9 1   
     2     1    31 1   
     3     1    36 1   
     4     1    37 1   
     5     2     3 2   
     6     2     6 1   
     7     2    10 2   
     8     2    12 1   
     9     4     5 1   
    10     4     9 1   
    11     4    38 1   
    12     4    39 1   
    13     5     6 1   
    14     5    40 1   
    15     5    41 1   
    16     6     8 1   
    17     7     8 1   
    18     7     9 1   
    19     7    21 1   
    20     7    42 1   
    21     8    43 1   
    22     8    44 1   
    23    11    12 ar  
    24    11    16 ar  
    25    11    64 1   
    26    12    15 ar  
    27    13    14 ar  
    28    13    16 ar  
    29    13    18 ar  
    30    14    15 ar  
    31    14    45 1   
    32    15    46 1   
    33    16    17 ar  
    34    17    19 ar  
    35    17    47 1   
    36    18    20 ar  
    37    18    48 1   
    38    19    20 ar  
    39    19    49 1   
    40    20    62 1   
    41    21    22 1   
    42    21    23 1   
    43    24    27 ar  
    44    24    33 ar  
    45    24    63 1   
    46    25    26 1   
    47    25    28 1   
    48    25    30 1   
    49    26    27 ar  
    50    26    29 ar  
    51    27    50 1   
    52    28    32 1   
    53    28    51 1   
    54    28    52 1   
    55    29    34 ar  
    56    29    53 1   
    57    30    35 1   
    58    30    54 1   
    59    30    55 1   
    60    31    32 1   
    61    31    35 1   
    62    31    56 1   
    63    32    57 1   
    64    32    58 1   
    65    33    34 ar  
    66    34    59 1   
    67    35    60 1   
    68    35    61 1   
@<TRIPOS>SUBSTRUCTURE
     1 XMG         1 TEMP              0 ****  ****    0 ROOT
