@<TRIPOS>MOLECULE
molecule
   71    75     1     0     0
SMALL
bcc


@<TRIPOS>ATOM
      1 C1           0.0000     0.0000     0.0000 c3         1 XMH       0.133800
      2 C2           7.4200    -2.5450     0.1950 ca         1 XMH       0.436700
      3 N3           3.9670    -1.3750     0.8050 nh         1 XMH      -0.547000
      4 C4           5.3610    -1.4570     0.7360 ca         1 XMH       0.111600
      5 C5           6.0420    -2.5380     0.1770 ca         1 XMH      -0.288800
      6 C6           3.5680    -0.1140     1.4360 c3         1 XMH       0.140800
      7 C7           6.1110    -0.4190     1.2870 ca         1 XMH      -0.288800
      8 C8           3.5690    -1.3040    -0.6040 c3         1 XMH       0.140800
      9 C9           1.5300     0.0000     0.0000 c3         1 XMH      -0.063700
     10 C10          2.0420     0.0000     1.4440 c3         1 XMH      -0.082400
     11 N11          8.0940    -1.5450     0.7310 nb         1 XMH      -0.708000
     12 C12          7.4870    -0.5040     1.2700 ca         1 XMH       0.436700
     13 C13          2.0420    -1.2560    -0.7090 c3         1 XMH      -0.082400
     14 O15         -3.5330    -2.8090    -3.9930 o          1 XMH      -0.633800
     15 C16         -1.8350     0.5750    -1.3620 c3         1 XMH       0.096500
     16 C17         -2.4000     0.6180    -2.7840 c3         1 XMH       0.247800
     17 N18         -2.3710    -0.7460    -3.3370 n3         1 XMH      -0.822500
     18 C19         -0.6310    -1.4200    -1.7710 c3         1 XMH       0.108800
     19 C20         -1.1180    -1.5080    -3.2190 c3         1 XMH       0.233800
     20 N21         -0.4890    -0.0110    -1.3850 n3         1 XMH      -0.650600
     21 O22         -4.8180    -0.6800    -3.5560 o          1 XMH      -0.633800
     22 C23         -4.1950     0.1520    -6.2270 ca         1 XMH       0.005000
     23 C24         -3.6200    -0.9980    -5.7800 ca         1 XMH      -0.311500
     24 C25         -3.4630    -0.4000    -8.4830 ca         1 XMH       0.010000
     25 C26         -2.8860    -1.5820    -7.9860 ca         1 XMH      -0.128000
     26 C27         -2.9700    -1.8630    -6.6570 ca         1 XMH      -0.048000
     27 C28         -4.1250     0.4790    -7.5920 ca         1 XMH      -0.067000
     28 C30         -4.7020     1.6590    -8.0890 ca         1 XMH      -0.089000
     29 C31         -3.3970    -0.0770    -9.8490 ca         1 XMH      -0.125000
     30 C32         -4.6190     1.9420    -9.4170 ca         1 XMH      -0.130000
     31 C33         -3.9680     1.0770   -10.2960 ca         1 XMH       0.051400
     32 C34         -1.7630     1.9740    -0.8070 c          1 XMH       0.634100
     33 O35         -2.8450     2.5260    -0.2360 os         1 XMH      -0.441900
     34 C36         -2.7750     3.8740     0.2980 c3         1 XMH       0.154400
     35 C37         -4.1330     4.2600     0.8870 c3         1 XMH      -0.096100
     36 O38         -0.7320     2.5990    -0.8770 o          1 XMH      -0.527000
     37 H11         -0.3610    -0.8800     0.5180 h1         1 XMH       0.043700
     38 H12A        -0.3610     0.8890     0.5030 h1         1 XMH       0.043700
     39 H2           7.9560    -3.3810    -0.2370 h4         1 XMH       0.022100
     40 H5           5.4950    -3.3630    -0.2650 ha         1 XMH       0.145500
     41 H61          3.9740    -0.0710     2.4390 h1         1 XMH       0.047200
     42 H62          3.9490     0.7150     0.8520 h1         1 XMH       0.047200
     43 H7           5.6200     0.4230     1.7590 ha         1 XMH       0.145500
     44 H81          3.9040    -2.1980    -1.1170 h1         1 XMH       0.047200
     45 H82          4.0180    -0.4310    -1.0610 h1         1 XMH       0.047200
     46 H9           1.8970     0.8800    -0.5140 hc         1 XMH       0.075700
     47 H101         1.6200    -0.8440     1.9760 hc         1 XMH       0.054700
     48 H102         1.7520     0.9240     1.9290 hc         1 XMH       0.054700
     49 H12          8.0780     0.2970     1.6980 h4         1 XMH       0.022100
     50 H131         1.7530    -1.2250    -1.7520 hc         1 XMH       0.054700
     51 H132         1.6200    -2.1340    -0.2360 hc         1 XMH       0.054700
     52 H16         -2.4800    -0.0330    -0.7390 h1         1 XMH       0.061700
     53 H171        -3.4210     0.9790    -2.7590 h1         1 XMH       0.073200
     54 H172        -1.7910     1.2720    -3.3970 h1         1 XMH       0.073200
     55 H191        -1.3510    -1.9010    -1.1200 h1         1 XMH       0.059200
     56 H192         0.3290    -1.9150    -1.6840 h1         1 XMH       0.059200
     57 H201        -1.2970    -2.5440    -3.4800 h1         1 XMH       0.065700
     58 H202        -0.3710    -1.0840    -3.8800 h1         1 XMH       0.065700
     59 H23         -4.7930     0.7560    -5.5550 ha         1 XMH       0.156000
     60 H26         -2.3770    -2.2640    -8.6560 ha         1 XMH       0.142000
     61 H27         -2.5250    -2.7740    -6.2760 ha         1 XMH       0.150000
     62 H30         -5.2100     2.3410    -7.4190 ha         1 XMH       0.144000
     63 H31         -2.7970    -0.6800   -10.5200 ha         1 XMH       0.152000
     64 H32         -5.0650     2.8530    -9.7980 ha         1 XMH       0.147000
     65 H361        -2.0190     3.9170     1.0730 h1         1 XMH       0.046700
     66 H362        -2.5170     4.5640    -0.4960 h1         1 XMH       0.046700
     67 H371        -4.4340     3.5180     1.6180 hc         1 XMH       0.049367
     68 H372        -4.0570     5.2280     1.3670 hc         1 XMH       0.049367
     69 H373        -4.8710     4.3060     0.0950 hc         1 XMH       0.049367
     70 S14         -3.7050    -1.4010    -4.0670 sy         1 XMH       1.428200
     71 Cl29        -3.8850     1.4730   -11.9840 cl         1 XMH      -0.101400
@<TRIPOS>BOND
     1     1     9 1
     2     1    20 1
     3     1    37 1
     4     1    38 1
     5     2     5 ar
     6     2    11 ar
     7     2    39 1
     8     3     4 1
     9     3     6 1
    10     3     8 1
    11     4     5 ar
    12     4     7 ar
    13     5    40 1
    14     6    10 1
    15     6    41 1
    16     6    42 1
    17     7    12 ar
    18     7    43 1
    19     8    13 1
    20     8    44 1
    21     8    45 1
    22     9    10 1
    23     9    13 1
    24     9    46 1
    25    10    47 1
    26    10    48 1
    27    11    12 ar
    28    12    49 1
    29    13    50 1
    30    13    51 1
    31    70    14 2
    32    70    17 1
    33    70    21 2
    34    70    23 1
    35    15    16 1
    36    15    20 1
    37    15    32 1
    38    15    52 1
    39    16    17 1
    40    16    53 1
    41    16    54 1
    42    17    19 1
    43    18    19 1
    44    18    20 1
    45    18    55 1
    46    18    56 1
    47    19    57 1
    48    19    58 1
    49    22    23 ar
    50    22    27 ar
    51    22    59 1
    52    23    26 ar
    53    24    25 ar
    54    24    27 ar
    55    24    29 ar
    56    25    26 ar
    57    25    60 1
    58    26    61 1
    59    27    28 ar
    60    71    31 1
    61    28    30 ar
    62    28    62 1
    63    29    31 ar
    64    29    63 1
    65    30    31 ar
    66    30    64 1
    67    32    33 1
    68    32    36 2
    69    33    34 1
    70    34    35 1
    71    34    65 1
    72    34    66 1
    73    35    67 1
    74    35    68 1
    75    35    69 1
@<TRIPOS>SUBSTRUCTURE
     1 XMH         1 TEMP              0 ****  ****    0 ROOT
