@<TRIPOS>MOLECULE
XMK
   60    55     1     0     0
SMALL
bcc


@<TRIPOS>ATOM
      1 C1         -0.1210    1.7060   -0.5350 c2        1 XMK     -0.182000
      2 C2          7.3040   -4.2340   -0.6890 c1        1 XMK      0.120000
      3 N3          5.1550   -1.5650   -0.4330 n3        1 XMK     -0.170000
      4 C4          6.2680   -2.0930    0.2710 c2        1 XMK     -0.013000
      5 C5          6.4350   -3.5840    0.3150 c3        1 XMK     -0.211000
      6 C6          2.1840   -0.1470    1.7600 c3        1 XMK     -0.279000
      7 C7          7.1120   -1.2920    0.9530 c2        1 XMK     -0.286000
      8 C8          4.6290   -2.2640   -1.4650 c1        1 XMK     -0.108000
      9 C9          0.9760    0.7370   -0.2650 c3        1 XMK     -0.188000
     10 C10         0.9600    0.2350    1.0980 c1        1 XMK     -0.082000
     11 N11         7.9080   -3.5700   -1.6680 n2        1 XMK     -0.339000
     12 C12         8.5280   -3.1500   -2.6090 c1        1 XMK      0.203000
     13 C13         4.0760   -2.8690   -2.3420 c1        1 XMK     -0.229000
     14 C14        -1.9820    7.7980    2.0840 c2        1 XMK      0.043000
     15 C15        -2.0770    6.7160    1.2990 c2        1 XMK     -0.877000
     16 C16        -2.9100    9.6490    3.3830 c2        1 XMK     -0.138000
     17 C18        -3.1060    8.4970    2.6830 c2        1 XMK     -0.072000
     18 O20        -1.0750    5.7340   -0.7770 o         1 XMK     -0.923000
     19 C21        -2.2940    1.0740    2.7560 c1        1 XMK     -0.259000
     20 C22        -1.9180    4.1620    2.1230 c1        1 XMK     -0.101500
     21 N23        -0.8380    4.3990    1.3650 n3        1 XMK     -0.613000
     22 C24        -4.4760    7.9420    2.5380 c3        1 XMK     -0.206000
     23 C25         0.0870    2.8740   -1.1540 c2        1 XMK     -0.171000
     24 C26         0.2540    3.6430    1.0910 c1        1 XMK     -0.101500
     25 C27        -4.0080   10.3470    3.9900 c2        1 XMK     -0.042000
     26 N28        -1.5670    0.0570    2.4450 n3        1 XMK     -0.238000
     27 C29        -5.5760    8.6580    3.1610 c1        1 XMK     -0.053000
     28 C30        -5.2790    9.8560    3.8770 c2        1 XMK     -0.144000
     29 O31         0.3880    6.6030    0.9110 o         1 XMK     -0.923000
     30 H11        -1.1260    1.3820   -0.2150 ha        1 XMK      0.139000
     31 H12A       -0.6640    0.1830    1.9680 hn        1 XMK      0.207500
     32 H2          5.4390   -4.1130    0.2310 hc        1 XMK      0.157500
     33 H5          6.8640   -3.8800    1.3170 hc        1 XMK      0.157500
     34 H61         2.3050    0.5350    2.6480 hc        1 XMK      0.116667
     35 H62         2.0720   -1.1900    2.1630 hc        1 XMK      0.116667
     36 H7          7.0540   -0.1970    0.9430 ha        1 XMK      0.128000
     37 H81         5.2150   -0.5770   -0.6140 hn        1 XMK      0.220000
     38 H82         4.3830    1.5240   -0.8420 ha        1 XMK      0.003500
     39 H9          3.5920   -3.4040   -3.1170 ha        1 XMK      0.239000
     40 H101        3.1170   -0.0950    1.1410 hc        1 XMK      0.116667
     41 H102        1.9720    1.1710   -0.5730 hc        1 XMK      0.121500
     42 H12         7.9090   -1.7120    1.5770 ha        1 XMK      0.128000
     43 H131        0.8110   -0.1800   -0.9150 hc        1 XMK      0.121500
     44 H132        4.2690    1.4130   -0.1840 ha        1 XMK      0.003500
     45 H14        -0.9810    8.2230    2.3130 ha        1 XMK      0.148000
     46 H15        -3.0780    6.2890    1.0950 h4        1 XMK      0.192000
     47 H16        -1.9030   10.0810    3.5050 ha        1 XMK      0.145000
     48 H211       -3.3980    3.0150    0.5700 ha        1 XMK      0.003500
     49 H212       -1.9870    3.1940    2.6720 ha        1 XMK      0.107500
     50 H221       -3.2080    2.4510    0.8980 ha        1 XMK      0.003500
     51 H222       -3.2610    0.8850    3.2650 ha        1 XMK      0.044000
     52 H24        -4.7380    7.8440    1.4400 hc        1 XMK      0.182500
     53 H251       -1.8070   -0.8980    2.6280 hn        1 XMK      0.207500
     54 H252        0.3390    2.6810    1.6430 ha        1 XMK      0.107500
     55 H261        1.0850    3.2060   -1.4740 ha        1 XMK      0.140000
     56 H262       -0.7320    3.5610   -1.4200 ha        1 XMK      0.140000
     57 H27        -3.7820   11.2760    4.5410 ha        1 XMK      0.150000
     58 H29        -4.5040    6.8830    2.9460 hc        1 XMK      0.182500
     59 S17        -0.7940    5.9200    0.5860 s6        1 XMK      2.845000
     60 CL19       -6.5790   10.6770    4.5990 cl        1 XMK      0.007000
@<TRIPOS>BOND
     1    1    9 1   
     2    1   23 1   
     3    1   30 1   
     4    2    5 1   
     5    2   11 1   
     6    3    4 1   
     7    3    8 1   
     8    3   37 1   
     9    4    5 1   
    10    4    7 1   
    11    5   32 1   
    12    5   33 1   
    13    6   10 1   
    14    6   34 1   
    15    6   35 1   
    16    6   40 1   
    17    7   36 1   
    18    7   42 1   
    19    8   13 1   
    20    9   10 1   
    21    9   41 1   
    22    9   43 1   
    23   11   12 1   
    24   13   39 1   
    25   14   15 1   
    26   14   17 1   
    27   14   45 1   
    28   15   46 1   
    29   15   59 1   
    30   16   17 1   
    31   16   25 1   
    32   16   47 1   
    33   17   22 1   
    34   18   59 1   
    35   19   26 1   
    36   19   51 1   
    37   20   21 1   
    38   20   49 1   
    39   21   24 1   
    40   21   59 1   
    41   22   27 1   
    42   22   52 1   
    43   22   58 1   
    44   23   55 1   
    45   23   56 1   
    46   24   54 1   
    47   25   28 1   
    48   25   57 1   
    49   26   31 1   
    50   26   53 1   
    51   27   28 1   
    52   28   60 1   
    53   29   59 1   
    54   38   44 1   
    55   48   50 1   
@<TRIPOS>SUBSTRUCTURE
     1 XMK         1 TEMP              0 ****  ****    0 ROOT
