@<TRIPOS>MOLECULE
molecule
   60    63     1     0     0
SMALL
bcc


@<TRIPOS>ATOM
      1 C1           0.0000     0.0000     0.0000 c3         1 XMK       0.139800
      2 C2           7.4180    -2.5510     0.1930 ca         1 XMK       0.436200
      3 N3           3.9660    -1.3790     0.8040 nh         1 XMK      -0.544000
      4 C4           5.3600    -1.4610     0.7330 ca         1 XMK       0.110600
      5 C5           6.0390    -2.5440     0.1750 ca         1 XMK      -0.289300
      6 C6           3.5680    -0.1160     1.4350 c3         1 XMK       0.139800
      7 C7           6.1100    -0.4230     1.2840 ca         1 XMK      -0.289300
      8 C8           3.5670    -1.3080    -0.6040 c3         1 XMK       0.139800
      9 C9           1.5300     0.0000     0.0000 c3         1 XMK      -0.078700
     10 C10          2.0430     0.0000     1.4430 c3         1 XMK      -0.073900
     11 N11          8.0930    -1.5510     0.7290 nb         1 XMK      -0.708000
     12 C12          7.4870    -0.5090     1.2680 ca         1 XMK       0.436200
     13 C13          2.0420    -1.2580    -0.7090 c3         1 XMK      -0.073900
     14 C14         -2.5990     7.2690     1.3250 ce         1 XMK       0.050800
     15 C15         -3.0310     6.0210     1.4370 cf         1 XMK      -0.405100
     16 C16         -2.2910     9.5200     2.3430 ca         1 XMK      -0.088500
     17 C18         -2.7440     8.2050     2.4580 ca         1 XMK      -0.096800
     18 O20         -4.1540     4.3630    -0.1360 o          1 XMK      -0.639300
     19 C21         -1.9530     1.2030     0.5380 c3         1 XMK       0.123300
     20 C22         -2.5360     2.4460     1.2160 c3         1 XMK       0.237300
     21 N23         -1.9260     3.6380     0.6050 n3         1 XMK      -0.823500
     22 C24         -3.3360     7.7800     3.6470 ca         1 XMK      -0.088500
     23 C25         -0.0060     2.3500    -0.1610 c3         1 XMK       0.123300
     24 C26         -0.4620     3.6660     0.4660 c3         1 XMK       0.237300
     25 C27         -2.4290    10.3900     3.4040 ca         1 XMK      -0.128000
     26 N28         -0.4890     1.2250     0.6460 n3         1 XMK      -0.673600
     27 C29         -3.4640     8.6580     4.7040 ca         1 XMK      -0.128000
     28 C30         -3.0170     9.9620     4.5820 ca         1 XMK       0.045400
     29 O31         -2.0770     5.5870    -0.8830 o          1 XMK      -0.639300
     30 H11         -0.3610    -0.0390    -1.0210 h1         1 XMK       0.042200
     31 H12A        -0.3610    -0.8640     0.5440 h1         1 XMK       0.042200
     32 H2           7.9540    -3.3880    -0.2380 h4         1 XMK       0.022600
     33 H5           5.4910    -3.3680    -0.2660 ha         1 XMK       0.145000
     34 H61          3.9740    -0.0720     2.4380 h1         1 XMK       0.045700
     35 H62          3.9490     0.7130     0.8500 h1         1 XMK       0.045700
     36 H7           5.6190     0.4190     1.7570 ha         1 XMK       0.145000
     37 H81          3.9020    -2.2020    -1.1170 h1         1 XMK       0.045700
     38 H82          4.0180    -0.4350    -1.0610 h1         1 XMK       0.045700
     39 H9           1.8980     0.8800    -0.5140 hc         1 XMK       0.051700
     40 H101         1.7540     0.9240     1.9290 hc         1 XMK       0.057450
     41 H102         1.6200    -0.8430     1.9760 hc         1 XMK       0.057450
     42 H12          8.0780     0.2920     1.6960 h4         1 XMK       0.022600
     43 H131         1.7540    -1.2270    -1.7520 hc         1 XMK       0.057450
     44 H132         1.6190    -2.1360    -0.2360 hc         1 XMK       0.057450
     45 H14         -2.1350     7.6010     0.4040 ha         1 XMK       0.157000
     46 H15         -3.4920     5.6880     2.3590 h4         1 XMK       0.169000
     47 H16         -1.8310     9.8570     1.4220 ha         1 XMK       0.144000
     48 H211        -2.3360     0.3150     1.0250 h1         1 XMK       0.047450
     49 H212        -2.2360     1.1980    -0.5080 h1         1 XMK       0.047450
     50 H221        -2.3080     2.4230     2.2750 h1         1 XMK       0.062450
     51 H222        -3.6090     2.4700     1.0690 h1         1 XMK       0.062450
     52 H24         -3.6860     6.7590     3.7440 ha         1 XMK       0.144000
     53 H251         1.0760     2.3270    -0.2000 h1         1 XMK       0.047450
     54 H252        -0.4090     2.2720    -1.1640 h1         1 XMK       0.047450
     55 H261        -0.1740     4.4910    -0.1740 h1         1 XMK       0.062450
     56 H262        -0.0060     3.7790     1.4420 h1         1 XMK       0.062450
     57 H27         -2.0770    11.4110     3.3150 ha         1 XMK       0.149000
     58 H29         -3.9230     8.3280     5.6280 ha         1 XMK       0.149000
     59 S17         -2.8590     4.9030     0.0850 sy         1 XMK       1.415800
     60 Cl19        -3.1870    11.0630     5.9130 cl         1 XMK      -0.101400
@<TRIPOS>BOND
     1     1     9 1
     2     1    26 1
     3     1    30 1
     4     1    31 1
     5     2     5 ar
     6     2    11 ar
     7     2    32 1
     8     3     4 1
     9     3     6 1
    10     3     8 1
    11     4     5 ar
    12     4     7 ar
    13     5    33 1
    14     6    10 1
    15     6    34 1
    16     6    35 1
    17     7    12 ar
    18     7    36 1
    19     8    13 1
    20     8    37 1
    21     8    38 1
    22     9    10 1
    23     9    13 1
    24     9    39 1
    25    10    40 1
    26    10    41 1
    27    11    12 ar
    28    12    42 1
    29    13    43 1
    30    13    44 1
    31    14    15 2
    32    14    17 1
    33    14    45 1
    34    15    59 1
    35    15    46 1
    36    16    17 ar
    37    16    25 ar
    38    16    47 1
    39    59    18 2
    40    59    21 1
    41    59    29 2
    42    17    22 ar
    43    60    28 1
    44    19    20 1
    45    19    26 1
    46    19    48 1
    47    19    49 1
    48    20    21 1
    49    20    50 1
    50    20    51 1
    51    21    24 1
    52    22    27 ar
    53    22    52 1
    54    23    24 1
    55    23    26 1
    56    23    53 1
    57    23    54 1
    58    24    55 1
    59    24    56 1
    60    25    28 ar
    61    25    57 1
    62    27    28 ar
    63    27    58 1
@<TRIPOS>SUBSTRUCTURE
     1 XMK         1 TEMP              0 ****  ****    0 ROOT
