@<TRIPOS>MOLECULE
molecule
   36    38     1     0     0
SMALL
bcc


@<TRIPOS>ATOM
      1 P            0.0000     0.0000     0.0000 p5         1 XMP       1.174900
      2 O1P          1.6100     0.0000     0.0000 o          1 XMP      -0.796167
      3 O2P         -0.5370     0.0000     1.5180 o          1 XMP      -0.796167
      4 O5'         -0.5360     1.3140    -0.7590 os         1 XMP      -0.566200
      5 O3P         -0.4930    -1.2090    -0.6970 o          1 XMP      -0.796167
      6 C5'         -1.9210     1.5540    -1.0170 c3         1 XMP       0.224400
      7 C4'         -2.0810     2.8870    -1.7510 c3         1 XMP       0.107100
      8 O4'         -1.4950     2.7960    -3.0610 os         1 XMP      -0.368600
      9 C1'         -2.2950     3.6170    -3.9380 c3         1 XMP       0.230800
     10 N9          -2.1120     3.2110    -5.3340 na         1 XMP      -0.026100
     11 C4          -2.3230     3.9860    -6.4300 cc         1 XMP       0.103300
     12 N3          -2.7360     5.2840    -6.6270 ns         1 XMP      -0.424100
     13 N1          -2.5790     5.0640    -8.9660 ns         1 XMP      -0.554500
     14 C2          -2.8530     5.7880    -7.8680 c          1 XMP       0.824500
     15 O2          -3.2220     6.9390    -8.0000 o          1 XMP      -0.628500
     16 C6          -2.1670     3.7820    -8.8660 c          1 XMP       0.735100
     17 O6          -1.9190     3.1280    -9.8640 o          1 XMP      -0.610500
     18 C5          -2.0260     3.1950    -7.5330 cd         1 XMP      -0.285900
     19 N7          -1.6500     1.9790    -7.0700 na         1 XMP      -0.087100
     20 C8          -1.6940     1.9870    -5.7680 cc         1 XMP      -0.062600
     21 C2'         -3.7460     3.3340    -3.4730 c3         1 XMP       0.084100
     22 O2'         -4.6090     4.4250    -3.8000 oh         1 XMP      -0.594800
     23 C3'         -3.5770     3.2040    -1.9400 c3         1 XMP       0.089100
     24 O3'         -3.9110     4.4340    -1.2940 oh         1 XMP      -0.586800
     25 H5'2        -2.3170     0.7540    -1.6310 h1         1 XMP       0.032700
     26 H5'1        -2.4620     1.5910    -0.0800 h1         1 XMP       0.032700
     27 H4'         -1.6040     3.6820    -1.1900 h1         1 XMP       0.095700
     28 H1'         -2.0520     4.6640    -3.8040 h2         1 XMP       0.103700
     29 H3          -2.9510     5.8600    -5.8370 hn         1 XMP       0.380500
     30 H1          -2.6810     5.4810    -9.8700 hn         1 XMP       0.379500
     31 H7          -1.3750     1.2010    -7.6370 hn         1 XMP       0.353700
     32 H8          -1.4370     1.1510    -5.1290 h5         1 XMP       0.274000
     33 H2'         -4.1100     2.4060    -3.8970 h1         1 XMP       0.060700
     34 H2O1        -5.4900     4.1070    -3.9100 ho         1 XMP       0.414000
     35 H3'         -4.1850     2.3920    -1.5600 h1         1 XMP       0.069700
     36 H3O1        -4.4670     4.2600    -0.5530 ho         1 XMP       0.413000
@<TRIPOS>BOND
     1     1     2 1
     2     1     3 1
     3     1     4 1
     4     1     5 1
     5     4     6 1
     6     6     7 1
     7     6    25 1
     8     6    26 1
     9     7     8 1
    10     7    23 1
    11     7    27 1
    12     8     9 1
    13     9    10 1
    14     9    21 1
    15     9    28 1
    16    10    11 1
    17    10    20 2
    18    11    12 1
    19    11    18 2
    20    12    14 1
    21    12    29 1
    22    13    14 1
    23    13    16 1
    24    13    30 1
    25    14    15 2
    26    16    17 2
    27    16    18 1
    28    18    19 1
    29    19    20 1
    30    19    31 1
    31    20    32 1
    32    21    22 1
    33    21    23 1
    34    21    33 1
    35    22    34 1
    36    23    24 1
    37    23    35 1
    38    24    36 1
@<TRIPOS>SUBSTRUCTURE
     1 XMP         1 TEMP              0 ****  ****    0 ROOT
