@<TRIPOS>MOLECULE
molecule
   59    61     1     0     0
SMALL
bcc


@<TRIPOS>ATOM
      1 CAP          0.0000     0.0000     0.0000 c3         1 XMQ       0.118300
      2 CAN          1.5300     0.0000     0.0000 c3         1 XMQ       0.162800
      3 NBA          2.0180     0.0000     1.3870 n3         1 XMQ      -0.720600
      4 CAC          1.6360     1.2390     2.0790 c3         1 XMQ       0.142100
      5 CAO          1.5300    -1.1800     2.1140 c3         1 XMQ       0.162800
      6 CAQ         -0.0010    -1.1800     2.1130 c3         1 XMQ       0.118300
      7 NBB         -0.4880    -1.1800     0.7270 n3         1 XMQ      -0.723600
      8 CAM         -1.9540    -1.2570     0.6840 c3         1 XMQ       0.162800
      9 CAK         -2.4110    -2.6120     1.2260 c3         1 XMQ      -0.078400
     10 CAL         -3.9380    -2.6910     1.1810 c3         1 XMQ      -0.044100
     11 CAU         -4.3880    -4.0260     1.7160 ca         1 XMQ      -0.012300
     12 CAJ         -4.6500    -4.1780     3.0650 ca         1 XMQ      -0.150000
     13 CAW         -5.0620    -5.4030     3.5570 ca         1 XMQ       0.124900
     14 ClH         -5.3920    -5.5930     5.2500 cl         1 XMQ      -0.048900
     15 CAI         -4.5430    -5.0980     0.8570 ca         1 XMQ      -0.150000
     16 CAV         -4.9560    -6.3240     1.3480 ca         1 XMQ       0.124900
     17 ClG         -5.1510    -7.6700     0.2690 cl         1 XMQ      -0.048900
     18 CAZ         -5.2120    -6.4780     2.6980 ca         1 XMQ      -0.309500
     19 SBD         -5.7370    -8.0390     3.3230 sy         1 XMQ       1.419200
     20 OAE         -5.4150    -8.9990     2.3260 o          1 XMQ      -0.621800
     21 OAF         -5.2600    -8.1170     4.6600 o          1 XMQ      -0.621800
     22 NAS         -7.3900    -7.9990     3.4190 nu         1 XMQ      -0.741500
     23 CAY         -8.1610    -7.9300     2.2420 cc         1 XMQ      -0.103700
     24 CAX         -8.8800    -6.8580     1.8200 cd         1 XMQ      -0.063600
     25 CAB         -8.9970    -5.5320     2.5240 c3         1 XMQ      -0.027800
     26 NBC         -9.4740    -7.2000     0.6460 na         1 XMQ       0.065400
     27 CAD        -10.3450    -6.3430    -0.1610 c3         1 XMQ       0.068600
     28 NAR         -9.1060    -8.5180     0.3460 nd         1 XMQ      -0.509800
     29 CAT         -8.3170    -8.9530     1.2960 cc         1 XMQ       0.364600
     30 CAA         -7.6880   -10.3200     1.3630 c3         1 XMQ      -0.105400
     31 HAP1        -0.3600    -0.0320    -1.0210 h1         1 XMQ       0.038200
     32 HAP2        -0.3600     0.8980     0.4880 h1         1 XMQ       0.038200
     33 HAN1         1.8910    -0.8860    -0.5080 h1         1 XMQ       0.062950
     34 HAN2         1.8910     0.8860    -0.5080 h1         1 XMQ       0.062950
     35 HAC1         2.0290     1.2240     3.0880 h1         1 XMQ       0.033033
     36 HAC2         0.5560     1.3160     2.1120 h1         1 XMQ       0.033033
     37 HAC3         2.0430     2.0900     1.5460 h1         1 XMQ       0.033033
     38 HAO1         1.8900    -1.1480     3.1350 h1         1 XMQ       0.062950
     39 HAO2         1.8900    -2.0780     1.6260 h1         1 XMQ       0.062950
     40 HAQ1        -0.3610    -0.2930     2.6210 h1         1 XMQ       0.038200
     41 HAQ2        -0.3610    -2.0660     2.6210 h1         1 XMQ       0.038200
     42 HAM1        -2.2910    -1.1450    -0.3400 h1         1 XMQ       0.033200
     43 HAM2        -2.3750    -0.4640     1.2910 h1         1 XMQ       0.033200
     44 HAK1        -1.9900    -3.4040     0.6190 hc         1 XMQ       0.058200
     45 HAK2        -2.0730    -2.7230     2.2500 hc         1 XMQ       0.058200
     46 HAL1        -4.3580    -1.8980     1.7890 hc         1 XMQ       0.054200
     47 HAL2        -4.2750    -2.5790     0.1580 hc         1 XMQ       0.054200
     48 HAJ         -4.5470    -3.3330     3.7350 ha         1 XMQ       0.151500
     49 HAI         -4.3700    -4.9700    -0.2050 ha         1 XMQ       0.151500
     50 HAS         -7.8420    -8.0730     4.3090 hn         1 XMQ       0.458800
     51 HAB1        -8.5080    -5.5910     3.4900 hc         1 XMQ       0.052700
     52 HAB2        -8.5230    -4.7630     1.9270 hc         1 XMQ       0.052700
     53 HAB3       -10.0430    -5.2880     2.6640 hc         1 XMQ       0.052700
     54 HAD1        -9.8070    -5.4470    -0.4460 h1         1 XMQ       0.054367
     55 HAD2       -11.2200    -6.0710     0.4170 h1         1 XMQ       0.054367
     56 HAD3       -10.6530    -6.8780    -1.0520 h1         1 XMQ       0.054367
     57 HAA1        -6.7770   -10.3270     0.7770 hc         1 XMQ       0.057033
     58 HAA2        -8.3780   -11.0550     0.9680 hc         1 XMQ       0.057033
     59 HAA3        -7.4560   -10.5600     2.3940 hc         1 XMQ       0.057033
@<TRIPOS>BOND
     1     1     2 1
     2     1     7 1
     3     2     3 1
     4     3     4 1
     5     3     5 1
     6     5     6 1
     7     6     7 1
     8     7     8 1
     9     8     9 1
    10     9    10 1
    11    10    11 1
    12    11    12 ar
    13    11    15 ar
    14    12    13 ar
    15    13    14 1
    16    13    18 ar
    17    15    16 ar
    18    16    17 1
    19    16    18 ar
    20    18    19 1
    21    19    20 2
    22    19    21 2
    23    19    22 1
    24    22    23 1
    25    23    24 2
    26    23    29 1
    27    24    25 1
    28    24    26 1
    29    26    27 1
    30    26    28 1
    31    28    29 2
    32    29    30 1
    33     1    31 1
    34     1    32 1
    35     2    33 1
    36     2    34 1
    37     4    35 1
    38     4    36 1
    39     4    37 1
    40     5    38 1
    41     5    39 1
    42     6    40 1
    43     6    41 1
    44     8    42 1
    45     8    43 1
    46     9    44 1
    47     9    45 1
    48    10    46 1
    49    10    47 1
    50    12    48 1
    51    15    49 1
    52    22    50 1
    53    25    51 1
    54    25    52 1
    55    25    53 1
    56    27    54 1
    57    27    55 1
    58    27    56 1
    59    30    57 1
    60    30    58 1
    61    30    59 1
@<TRIPOS>SUBSTRUCTURE
     1 XMQ         1 TEMP              0 ****  ****    0 ROOT
