@<TRIPOS>MOLECULE
XMQ
   59    61     1     0     0
SMALL
bcc


@<TRIPOS>ATOM
      1 CAP          0.0000     0.0000     0.0000 c3         1 XMQ       0.105300
      2 CAN          1.5300     0.0000     0.0000 c3         1 XMQ       0.158300
      3 NBA          2.0180     0.0000     1.3870 n3         1 XMQ      -0.542600
      4 CAC          1.6360     1.2390     2.0790 c3         1 XMQ       0.168100
      5 CAO          1.5300    -1.1800     2.1140 c3         1 XMQ       0.158300
      6 CAQ         -0.0010    -1.1800     2.1130 c3         1 XMQ       0.105300
      7 NBB         -0.4880    -1.1800     0.7270 n3         1 XMQ      -0.532600
      8 CAM         -1.9540    -1.2570     0.6840 c3         1 XMQ       0.153800
      9 CAK         -2.4110    -2.6120     1.2260 c3         1 XMQ      -0.034400
     10 CAL         -3.9380    -2.6910     1.1810 c3         1 XMQ       0.022900
     11 CAU         -4.3880    -4.0260     1.7160 ca         1 XMQ      -0.018300
     12 CAJ         -4.6500    -4.1780     3.0650 ca         1 XMQ      -0.136500
     13 CAW         -5.0620    -5.4030     3.5570 ca         1 XMQ       0.052400
     14 ClH         -5.3920    -5.5930     5.2500 cl         1 XMQ       0.050100
     15 CAI         -4.5430    -5.0980     0.8570 ca         1 XMQ      -0.136500
     16 CAV         -4.9560    -6.3240     1.3480 ca         1 XMQ       0.052400
     17 ClG         -5.1510    -7.6700     0.2690 cl         1 XMQ       0.050100
     18 CAZ         -5.2120    -6.4780     2.6980 ca         1 XMQ      -0.160500
     19 SBD         -5.7370    -8.0390     3.3230 sy         1 XMQ       1.023200
     20 OAE         -5.4150    -8.9990     2.3260 o          1 XMQ      -0.580800
     21 OAF         -5.2600    -8.1170     4.6600 o          1 XMQ      -0.580800
     22 NAS         -7.3900    -7.9990     3.4190 nu         1 XMQ      -0.351500
     23 CAY         -8.1610    -7.9300     2.2420 cc         1 XMQ      -0.190700
     24 CAX         -8.8800    -6.8580     1.8200 cd         1 XMQ      -0.243600
     25 CAB         -8.9970    -5.5320     2.5240 c3         1 XMQ       0.097200
     26 NBC         -9.4740    -7.2000     0.6460 na         1 XMQ       0.490400
     27 CAD        -10.3450    -6.3430    -0.1610 c3         1 XMQ       0.025600
     28 NAR         -9.1060    -8.5180     0.3460 nd         1 XMQ      -0.650800
     29 CAT         -8.3170    -8.9530     1.2960 cc         1 XMQ       0.390600
     30 CAA         -7.6880   -10.3200     1.3630 c3         1 XMQ      -0.008400
     31 HAP1        -0.3600    -0.0320    -1.0210 h1         1 XMQ       0.017950
     32 HAP2        -0.3600     0.8980     0.4880 h1         1 XMQ       0.017950
     33 HAN1         1.8910    -0.8860    -0.5080 h1         1 XMQ       0.029700
     34 HAN2         1.8910     0.8860    -0.5080 h1         1 XMQ       0.029700
     35 HAC1         2.0290     1.2240     3.0880 h1         1 XMQ       0.004033
     36 HAC2         0.5560     1.3160     2.1120 h1         1 XMQ       0.004033
     37 HAC3         2.0430     2.0900     1.5460 h1         1 XMQ       0.004033
     38 HAO1         1.8900    -1.1480     3.1350 h1         1 XMQ       0.029700
     39 HAO2         1.8900    -2.0780     1.6260 h1         1 XMQ       0.029700
     40 HAQ1        -0.3610    -0.2930     2.6210 h1         1 XMQ       0.017950
     41 HAQ2        -0.3610    -2.0660     2.6210 h1         1 XMQ       0.017950
     42 HAM1        -2.2910    -1.1450    -0.3400 h1         1 XMQ       0.008200
     43 HAM2        -2.3750    -0.4640     1.2910 h1         1 XMQ       0.008200
     44 HAK1        -1.9900    -3.4040     0.6190 hc         1 XMQ       0.030200
     45 HAK2        -2.0730    -2.7230     2.2500 hc         1 XMQ       0.030200
     46 HAL1        -4.3580    -1.8980     1.7890 hc         1 XMQ       0.021200
     47 HAL2        -4.2750    -2.5790     0.1580 hc         1 XMQ       0.021200
     48 HAJ         -4.5470    -3.3330     3.7350 ha         1 XMQ       0.123000
     49 HAI         -4.3700    -4.9700    -0.2050 ha         1 XMQ       0.123000
     50 HAS         -7.8420    -8.0730     4.3090 hn         1 XMQ       0.338800
     51 HAB1        -8.5080    -5.5910     3.4900 hc         1 XMQ       0.011367
     52 HAB2        -8.5230    -4.7630     1.9270 hc         1 XMQ       0.011367
     53 HAB3       -10.0430    -5.2880     2.6640 hc         1 XMQ       0.011367
     54 HAD1        -9.8070    -5.4470    -0.4460 h1         1 XMQ       0.020700
     55 HAD2       -11.2200    -6.0710     0.4170 h1         1 XMQ       0.020700
     56 HAD3       -10.6530    -6.8780    -1.0520 h1         1 XMQ       0.020700
     57 HAA1        -6.7770   -10.3270     0.7770 hc         1 XMQ       0.019367
     58 HAA2        -8.3780   -11.0550     0.9680 hc         1 XMQ       0.019367
     59 HAA3        -7.4560   -10.5600     2.3940 hc         1 XMQ       0.019367
@<TRIPOS>BOND
     1     1     2 1   
     2     1     7 1   
     3     1    31 1   
     4     1    32 1   
     5     2     3 1   
     6     2    33 1   
     7     2    34 1   
     8     3     4 1   
     9     3     5 1   
    10     4    35 1   
    11     4    36 1   
    12     4    37 1   
    13     5     6 1   
    14     5    38 1   
    15     5    39 1   
    16     6     7 1   
    17     6    40 1   
    18     6    41 1   
    19     7     8 1   
    20     8     9 1   
    21     8    42 1   
    22     8    43 1   
    23     9    10 1   
    24     9    44 1   
    25     9    45 1   
    26    10    11 1   
    27    10    46 1   
    28    10    47 1   
    29    11    12 ar  
    30    11    15 ar  
    31    12    13 ar  
    32    12    48 1   
    33    13    14 1   
    34    13    18 ar  
    35    15    16 ar  
    36    15    49 1   
    37    16    17 1   
    38    16    18 ar  
    39    18    19 1   
    40    19    20 2   
    41    19    21 2   
    42    19    22 1   
    43    22    23 1   
    44    22    50 1   
    45    23    24 2   
    46    23    29 1   
    47    24    25 1   
    48    24    26 1   
    49    25    51 1   
    50    25    52 1   
    51    25    53 1   
    52    26    27 1   
    53    26    28 1   
    54    27    54 1   
    55    27    55 1   
    56    27    56 1   
    57    28    29 2   
    58    29    30 1   
    59    30    57 1   
    60    30    58 1   
    61    30    59 1   
@<TRIPOS>SUBSTRUCTURE
     1 XMQ         1 TEMP              0 ****  ****    0 ROOT
