@<TRIPOS>MOLECULE
molecule
   35    37     1     0     0
SMALL
bcc


@<TRIPOS>ATOM
      1 C1           0.0000     0.0000     0.0000 c3         1 XMS       0.069600
      2 N2           1.4640     0.0000     0.0000 na         1 XMS       0.038900
      3 N3           2.3040     0.0000     1.1240 nc         1 XMS      -0.169400
      4 N4           3.5320    -0.0010     0.7410 nd         1 XMS      -0.221400
      5 C5           3.6030    -0.0000    -0.6060 ca         1 XMS      -0.001600
      6 C6           4.6750    -0.0010    -1.5080 ca         1 XMS      -0.059000
      7 C7           4.4350    -0.0020    -2.8500 ca         1 XMS      -0.038300
      8 C8           3.1350    -0.0020    -3.3390 ca         1 XMS      -0.066000
      9 C9           2.0640    -0.0000    -2.4740 ca         1 XMS      -0.184000
     10 C10          2.2880    -0.0060    -1.1020 ca         1 XMS      -0.082200
     11 C11          5.5930    -0.0040    -3.8140 c3         1 XMS       0.028900
     12 C12          5.4160    -1.1400    -4.8240 c3         1 XMS      -0.179400
     13 C13          6.6320    -1.2170    -5.7110 c          1 XMS       0.890600
     14 O14          7.5470    -0.4460    -5.5500 o          1 XMS      -0.845800
     15 O15          6.6980    -2.1470    -6.6770 o          1 XMS      -0.845800
     16 C16          5.6410     1.3140    -4.5440 ca         1 XMS      -0.011300
     17 C17          4.6420     1.6450    -5.4390 ca         1 XMS      -0.096500
     18 C18          4.6860     2.8530    -6.1090 ca         1 XMS      -0.127500
     19 C19          5.7300     3.7330    -5.8810 ca         1 XMS       0.017400
     20 Cl20         5.7840     5.2510    -6.7220 cl         1 XMS      -0.156400
     21 C21          6.7300     3.4010    -4.9850 ca         1 XMS      -0.127500
     22 C22          6.6820     2.1950    -4.3120 ca         1 XMS      -0.096500
     23 H11          6.5180    -0.1480    -3.2680 hc         1 XMS       0.079700
     24 H1          -0.3610     0.8850    -0.5100 h1         1 XMS       0.049700
     25 H1A         -0.3610    -0.8840    -0.5120 h1         1 XMS       0.049700
     26 H1B         -0.3610    -0.0010     1.0210 h1         1 XMS       0.049700
     27 H6           5.5440    -0.0810    -0.8650 ha         1 XMS       0.158000
     28 H8           2.5670    -0.3230    -4.2040 ha         1 XMS       0.154000
     29 H9           1.0440     0.0190    -2.8380 ha         1 XMS       0.121000
     30 H12          5.2940    -2.0770    -4.2950 hc         1 XMS       0.036200
     31 H12A         4.5390    -0.9500    -5.4300 hc         1 XMS       0.036200
     32 H17          3.8250     0.9560    -5.6170 ha         1 XMS       0.136500
     33 H18          3.9020     3.1120    -6.8110 ha         1 XMS       0.127000
     34 H21          7.5460     4.0900    -4.8040 ha         1 XMS       0.127000
     35 H22          7.4640     1.9350    -3.6090 ha         1 XMS       0.136500
@<TRIPOS>BOND
     1    24     1 1
     2     1    26 1
     3     1    25 1
     4     1     2 1
     5     2    10 1
     6     2     3 1
     7     3     4 2
     8     5     4 1
     9    10     5 ar
    10     5     6 ar
    11     7     6 ar
    12     6    27 1
    13     8     7 ar
    14     7    11 1
    15     9     8 ar
    16    28     8 1
    17    29     9 1
    18     9    10 ar
    19    12    11 1
    20    23    11 1
    21    11    16 1
    22    13    12 1
    23    12    30 1
    24    12    31 1
    25    14    13 1
    26    15    13 1
    27    16    22 ar
    28    16    17 ar
    29    32    17 1
    30    17    18 ar
    31    18    33 1
    32    18    19 ar
    33    21    19 ar
    34    19    20 1
    35    22    21 ar
    36    21    34 1
    37    35    22 1
@<TRIPOS>SUBSTRUCTURE
     1 XMS         1 TEMP              0 ****  ****    0 ROOT
