@<TRIPOS>MOLECULE
XNA
   55    59     1     0     0
SMALL
bcc


@<TRIPOS>ATOM
      1 C01          0.0000     0.0000     0.0000 c3         1 XNA       0.061200
      2 C02          1.5060     0.0000     0.0000 ca         1 XNA      -0.116300
      3 C03          2.1990     0.0000     1.1940 ca         1 XNA      -0.084000
      4 C04          3.5820     0.0000     1.1940 ca         1 XNA      -0.112000
      5 C05          4.2760     0.0010    -0.0010 ca         1 XNA      -0.089000
      6 C06          3.5910     0.0010    -1.2000 ca         1 XNA      -0.114000
      7 C07          2.2010    -0.0060    -1.2040 ca         1 XNA      -0.015400
      8 N08          1.5040    -0.0130    -2.4150 nu         1 XNA      -0.250300
      9 C09          2.0590     0.5760    -3.5340 ca         1 XNA       0.486900
     10 N10          3.1940     1.2540    -3.4540 nb         1 XNA      -0.732000
     11 C11          3.7380     1.8250    -4.5250 ca         1 XNA       0.736900
     12 N12          3.1910     1.7570    -5.7240 nb         1 XNA      -0.685000
     13 C13          2.0450     1.0960    -5.9060 ca         1 XNA       0.185000
     14 C14          1.4120     0.9890    -7.1690 ca         1 XNA       0.481900
     15 N15          0.2770     0.3100    -7.2430 nb         1 XNA      -0.720000
     16 C16         -0.2620    -0.2570    -6.1760 ca         1 XNA       0.665900
     17 N17          0.2830    -0.1900    -4.9830 nb         1 XNA      -0.676000
     18 C18          1.4310     0.4670    -4.8010 ca         1 XNA       0.141000
     19 N19          1.9640     1.5770    -8.2910 nu         1 XNA      -0.451900
     20 C20          1.2930     1.4550    -9.5870 c3         1 XNA       0.197800
     21 C21          2.1060     2.1910   -10.6530 cx         1 XNA      -0.142700
     22 C22          1.4500     3.3930   -11.3370 cx         1 XNA      -0.070900
     23 C23          1.6300     2.0820   -12.1030 cx         1 XNA      -0.070900
     24 N24          4.9270     2.5190    -4.3750 nh         1 XNA      -0.450300
     25 C25          5.9620     1.9920    -5.2760 c3         1 XNA       0.141300
     26 C26          7.2320     2.8350    -5.1370 c3         1 XNA       0.143300
     27 N27          7.6880     2.8040    -3.7410 n7         1 XNA      -0.586200
     28 C28          6.6530     3.3310    -2.8400 c3         1 XNA       0.143300
     29 C29          5.3820     2.4880    -2.9780 c3         1 XNA       0.141300
     30 H01         -0.3610     0.0820     1.0180 hc         1 XNA       0.009367
     31 H01A        -0.3610     0.8410    -0.5800 hc         1 XNA       0.009367
     32 H01B        -0.3610    -0.9230    -0.4380 hc         1 XNA       0.009367
     33 H03          1.6590    -0.0010     2.1330 ha         1 XNA       0.106000
     34 H04          4.1220     0.0000     2.1330 ha         1 XNA       0.102000
     35 H05          5.3590     0.0030     0.0030 ha         1 XNA       0.103000
     36 H06          4.1360    -0.0010    -2.1370 ha         1 XNA       0.143000
     37 HN08         0.6270    -0.4910    -2.4840 hn         1 XNA       0.309800
     38 H16         -1.1910    -0.8010    -6.2920 h5         1 XNA      -0.004900
     39 HN19         2.8130     2.1020    -8.2140 hn         1 XNA       0.315800
     40 H20          1.2110     0.4080    -9.8540 h1         1 XNA       0.029700
     41 H20A         0.3030     1.8900    -9.5230 h1         1 XNA       0.029700
     42 H21          3.1800     2.2680   -10.5330 hc         1 XNA       0.062700
     43 H22          2.1220     4.1950   -11.6180 hc         1 XNA       0.047200
     44 H22A         0.4380     3.6150   -11.0220 hc         1 XNA       0.047200
     45 H23          0.7270     1.5030   -12.2570 hc         1 XNA       0.047200
     46 H23A         2.4120     2.0820   -12.8530 hc         1 XNA       0.047200
     47 H25          5.6070     2.0410    -6.2980 h1         1 XNA       0.031200
     48 H25A         6.1800     0.9650    -5.0110 h1         1 XNA       0.031200
     49 H26          7.0190     3.8570    -5.4240 h1         1 XNA       0.012200
     50 H26A         8.0050     2.4280    -5.7770 h1         1 XNA       0.012200
     51 HN27         8.5200     3.3520    -3.6490 hn         1 XNA       0.253800
     52 H28          6.4340     4.3580    -3.1040 h1         1 XNA       0.012200
     53 H28A         7.0070     3.2830    -1.8170 h1         1 XNA       0.012200
     54 H29          5.5940     1.4660    -2.6910 h1         1 XNA       0.031200
     55 H29A         4.6080     2.8950    -2.3380 h1         1 XNA       0.031200
@<TRIPOS>BOND
     1     1     2 1   
     2     1    30 1   
     3     1    31 1   
     4     1    32 1   
     5     2     3 ar  
     6     2     7 ar  
     7     3     4 ar  
     8     3    33 1   
     9     4     5 ar  
    10     4    34 1   
    11     5     6 ar  
    12     5    35 1   
    13     6     7 ar  
    14     6    36 1   
    15     7     8 1   
    16     8     9 1   
    17     8    37 1   
    18     9    10 ar  
    19     9    18 ar  
    20    10    11 ar  
    21    11    12 ar  
    22    11    24 1   
    23    12    13 ar  
    24    13    14 ar  
    25    13    18 ar  
    26    14    15 ar  
    27    14    19 1   
    28    15    16 ar  
    29    16    17 ar  
    30    16    38 1   
    31    17    18 ar  
    32    19    20 1   
    33    19    39 1   
    34    20    21 1   
    35    20    40 1   
    36    20    41 1   
    37    21    22 1   
    38    21    23 1   
    39    21    42 1   
    40    22    23 1   
    41    22    43 1   
    42    22    44 1   
    43    23    45 1   
    44    23    46 1   
    45    24    25 1   
    46    24    29 1   
    47    25    26 1   
    48    25    47 1   
    49    25    48 1   
    50    26    27 1   
    51    26    49 1   
    52    26    50 1   
    53    27    28 1   
    54    27    51 1   
    55    28    29 1   
    56    28    52 1   
    57    28    53 1   
    58    29    54 1   
    59    29    55 1   
@<TRIPOS>SUBSTRUCTURE
     1 XNA         1 TEMP              0 ****  ****    0 ROOT
