@<TRIPOS>MOLECULE
XNB
   56    60     1     0     0
SMALL
bcc


@<TRIPOS>ATOM
      1 C01          0.0000     0.0000     0.0000 c3         1 XNB       0.120000
      2 S02          1.8150     0.0000     0.0000 ss         1 XNB      -0.345000
      3 C03          2.2110     0.0000     1.7160 ca         1 XNB       0.012900
      4 C04          1.1980    -0.0000     2.6650 ca         1 XNB      -0.105000
      5 C05          1.5120     0.0000     4.0110 ca         1 XNB      -0.108000
      6 C06          2.8330    -0.0010     4.4170 ca         1 XNB      -0.078000
      7 C07          3.8500    -0.0010     3.4790 ca         1 XNB      -0.145000
      8 C08          3.5450    -0.0070     2.1260 ca         1 XNB       0.020600
      9 N09          4.5720    -0.0070     1.1760 nu         1 XNB      -0.232300
     10 C10          5.8450    -0.4050     1.5340 ca         1 XNB       0.484900
     11 N11          6.0940    -0.9100     2.7350 nb         1 XNB      -0.736000
     12 C12          7.3180    -1.2940     3.0820 ca         1 XNB       0.734900
     13 N13          8.3620    -1.2050     2.2810 nb         1 XNB      -0.684000
     14 C14          8.2370    -0.7140     1.0450 ca         1 XNB       0.178000
     15 C15          9.3260    -0.6000     0.1490 ca         1 XNB       0.480900
     16 N16          9.0920    -0.0980    -1.0560 nb         1 XNB      -0.720000
     17 C17          7.8800     0.2900    -1.4220 ca         1 XNB       0.665900
     18 N18          6.8360     0.2060    -0.6300 nb         1 XNB      -0.668000
     19 C19          6.9640    -0.2910     0.6020 ca         1 XNB       0.152000
     20 N20         10.5950    -0.9990     0.5170 nu         1 XNB      -0.451900
     21 C21         11.7070    -0.8720    -0.4290 c3         1 XNB       0.197800
     22 C22         12.9920    -1.3830     0.2240 cx         1 XNB      -0.141700
     23 C23         14.2950    -1.2270    -0.5640 cx         1 XNB      -0.071400
     24 C24         13.6610    -2.6100    -0.3960 cx         1 XNB      -0.071400
     25 N25          7.5080    -1.8110     4.3520 nh         1 XNB      -0.450300
     26 C26          8.5370    -1.0570     5.0810 c3         1 XNB       0.139300
     27 C27          8.7730    -1.7080     6.4450 c3         1 XNB       0.142800
     28 N28          7.5110    -1.7330     7.1980 n7         1 XNB      -0.586200
     29 C29          6.4810    -2.4860     6.4700 c3         1 XNB       0.142800
     30 C30          6.2460    -1.8350     5.1050 c3         1 XNB       0.139300
     31 H01         -0.3610     0.8850     0.5110 h1         1 XNB       0.037367
     32 H01A        -0.3610    -0.8840     0.5110 h1         1 XNB       0.037367
     33 H01B        -0.3610    -0.0000    -1.0210 h1         1 XNB       0.037367
     34 H04          0.1610     0.0010     2.3500 ha         1 XNB       0.113000
     35 H05          0.7200     0.0000     4.7500 ha         1 XNB       0.103000
     36 H06          3.0740     0.0020     5.4740 ha         1 XNB       0.104000
     37 H07          4.8840    -0.0040     3.8010 ha         1 XNB       0.172000
     38 HN09         4.3870     0.2930     0.2390 hn         1 XNB       0.321800
     39 H17          7.7440     0.6930    -2.4190 h5         1 XNB      -0.003900
     40 HN20        10.7540    -1.3810     1.4280 hn         1 XNB       0.314800
     41 H21         11.8300     0.1680    -0.7040 h1         1 XNB       0.029700
     42 H21A        11.4950    -1.4580    -1.3160 h1         1 XNB       0.029700
     43 H22         13.1010    -1.3020     1.2990 hc         1 XNB       0.062700
     44 H23         15.1820    -1.0440     0.0310 hc         1 XNB       0.047450
     45 H23A        14.1970    -0.7830    -1.5470 hc         1 XNB       0.047450
     46 H24         14.1610    -3.2720     0.3010 hc         1 XNB       0.047450
     47 H24A        13.1760    -3.0120    -1.2770 hc         1 XNB       0.047450
     48 H26          9.4600    -1.0660     4.5130 h1         1 XNB       0.031450
     49 H26A         8.2040    -0.0360     5.2220 h1         1 XNB       0.031450
     50 H27          9.1290    -2.7220     6.3040 h1         1 XNB       0.012200
     51 H27A         9.5100    -1.1350     6.9950 h1         1 XNB       0.012200
     52 HN28         7.6640    -2.1560     8.0920 hn         1 XNB       0.253800
     53 H29          5.5580    -2.4760     7.0380 h1         1 XNB       0.012200
     54 H29A         6.8130    -3.5080     6.3290 h1         1 XNB       0.012200
     55 H30          5.5090    -2.4080     4.5550 h1         1 XNB       0.031450
     56 H30A         5.8910    -0.8210     5.2460 h1         1 XNB       0.031450
@<TRIPOS>BOND
     1     1     2 1   
     2     1    31 1   
     3     1    32 1   
     4     1    33 1   
     5     2     3 1   
     6     3     4 ar  
     7     3     8 ar  
     8     4     5 ar  
     9     4    34 1   
    10     5     6 ar  
    11     5    35 1   
    12     6     7 ar  
    13     6    36 1   
    14     7     8 ar  
    15     7    37 1   
    16     8     9 1   
    17     9    10 1   
    18     9    38 1   
    19    10    11 ar  
    20    10    19 ar  
    21    11    12 ar  
    22    12    13 ar  
    23    12    25 1   
    24    13    14 ar  
    25    14    15 ar  
    26    14    19 ar  
    27    15    16 ar  
    28    15    20 1   
    29    16    17 ar  
    30    17    18 ar  
    31    17    39 1   
    32    18    19 ar  
    33    20    21 1   
    34    20    40 1   
    35    21    22 1   
    36    21    41 1   
    37    21    42 1   
    38    22    23 1   
    39    22    24 1   
    40    22    43 1   
    41    23    24 1   
    42    23    44 1   
    43    23    45 1   
    44    24    46 1   
    45    24    47 1   
    46    25    26 1   
    47    25    30 1   
    48    26    27 1   
    49    26    48 1   
    50    26    49 1   
    51    27    28 1   
    52    27    50 1   
    53    27    51 1   
    54    28    29 1   
    55    28    52 1   
    56    29    30 1   
    57    29    53 1   
    58    29    54 1   
    59    30    55 1   
    60    30    56 1   
@<TRIPOS>SUBSTRUCTURE
     1 XNB         1 TEMP              0 ****  ****    0 ROOT
