@<TRIPOS>MOLECULE
molecule
   56    60     1     0     0
SMALL
bcc


@<TRIPOS>ATOM
      1 C01          0.0000     0.0000     0.0000 c3         1 XNB      -0.009000
      2 S02          1.8150     0.0000     0.0000 ss         1 XNB      -0.272000
      3 C03          2.2110     0.0000     1.7160 ca         1 XNB      -0.000100
      4 C04          1.1980    -0.0000     2.6650 ca         1 XNB      -0.128000
      5 C05          1.5120     0.0000     4.0110 ca         1 XNB      -0.136000
      6 C06          2.8330    -0.0010     4.4170 ca         1 XNB      -0.118000
      7 C07          3.8500    -0.0010     3.4790 ca         1 XNB      -0.140000
      8 C08          3.5450    -0.0070     2.1260 ca         1 XNB       0.166600
      9 N09          4.5720    -0.0070     1.1760 nu         1 XNB      -0.721300
     10 C10          5.8450    -0.4050     1.5340 ca         1 XNB       0.697900
     11 N11          6.0940    -0.9100     2.7350 nb         1 XNB      -0.839000
     12 C12          7.3180    -1.2940     3.0820 ca         1 XNB       0.895900
     13 N13          8.3620    -1.2050     2.2810 nb         1 XNB      -0.786000
     14 C14          8.2370    -0.7140     1.0450 ca         1 XNB       0.215000
     15 C15          9.3260    -0.6000     0.1490 ca         1 XNB       0.679900
     16 N16          9.0920    -0.0980    -1.0560 nb         1 XNB      -0.815000
     17 C17          7.8800     0.2900    -1.4220 ca         1 XNB       0.707900
     18 N18          6.8360     0.2060    -0.6300 nb         1 XNB      -0.766000
     19 C19          6.9640    -0.2910     0.6020 ca         1 XNB       0.182000
     20 N20         10.5950    -0.9990     0.5170 nu         1 XNB      -0.877900
     21 C21         11.7070    -0.8720    -0.4290 c3         1 XNB       0.271800
     22 C22         12.9920    -1.3830     0.2240 cx         1 XNB      -0.164700
     23 C23         14.2950    -1.2270    -0.5640 cx         1 XNB      -0.130400
     24 C24         13.6610    -2.6100    -0.3960 cx         1 XNB      -0.130400
     25 N25          7.5080    -1.8110     4.3520 nh         1 XNB      -0.683300
     26 C26          8.5370    -1.0570     5.0810 c3         1 XNB       0.176300
     27 C27          8.7730    -1.7080     6.4450 c3         1 XNB       0.152300
     28 N28          7.5110    -1.7330     7.1980 n7         1 XNB      -0.824200
     29 C29          6.4810    -2.4860     6.4700 c3         1 XNB       0.152300
     30 C30          6.2460    -1.8350     5.1050 c3         1 XNB       0.176300
     31 H01         -0.3610     0.8850     0.5110 h1         1 XNB       0.066033
     32 H01A        -0.3610    -0.8840     0.5110 h1         1 XNB       0.066033
     33 H01B        -0.3610    -0.0000    -1.0210 h1         1 XNB       0.066033
     34 H04          0.1610     0.0010     2.3500 ha         1 XNB       0.133000
     35 H05          0.7200     0.0000     4.7500 ha         1 XNB       0.130000
     36 H06          3.0740     0.0020     5.4740 ha         1 XNB       0.133000
     37 H07          4.8840    -0.0040     3.8010 ha         1 XNB       0.185000
     38 HN09         4.3870     0.2930     0.2390 hn         1 XNB       0.488800
     39 H17          7.7440     0.6930    -2.4190 h5         1 XNB       0.058100
     40 HN20        10.7540    -1.3810     1.4280 hn         1 XNB       0.470800
     41 H21         11.8300     0.1680    -0.7040 h1         1 XNB       0.057200
     42 H21A        11.4950    -1.4580    -1.3160 h1         1 XNB       0.057200
     43 H22         13.1010    -1.3020     1.2990 hc         1 XNB       0.084700
     44 H23         15.1820    -1.0440     0.0310 hc         1 XNB       0.077200
     45 H23A        14.1970    -0.7830    -1.5470 hc         1 XNB       0.077200
     46 H24         14.1610    -3.2720     0.3010 hc         1 XNB       0.077200
     47 H24A        13.1760    -3.0120    -1.2770 hc         1 XNB       0.077200
     48 H26          9.4600    -1.0660     4.5130 h1         1 XNB       0.059700
     49 H26A         8.2040    -0.0360     5.2220 h1         1 XNB       0.059700
     50 H27          9.1290    -2.7220     6.3040 h1         1 XNB       0.042200
     51 H27A         9.5100    -1.1350     6.9950 h1         1 XNB       0.042200
     52 HN28         7.6640    -2.1560     8.0920 hn         1 XNB       0.355800
     53 H29          5.5580    -2.4760     7.0380 h1         1 XNB       0.042200
     54 H29A         6.8130    -3.5080     6.3290 h1         1 XNB       0.042200
     55 H30          5.5090    -2.4080     4.5550 h1         1 XNB       0.059700
     56 H30A         5.8910    -0.8210     5.2460 h1         1 XNB       0.059700
@<TRIPOS>BOND
     1     2     1 1
     2     1    31 1
     3     1    32 1
     4     1    33 1
     5     3     2 1
     6     8     3 ar
     7     3     4 ar
     8     5     4 ar
     9     4    34 1
    10     6     5 ar
    11     5    35 1
    12     7     6 ar
    13     6    36 1
    14     7     8 ar
    15     7    37 1
    16     9     8 1
    17    10     9 1
    18     9    38 1
    19    11    10 ar
    20    19    10 ar
    21    12    11 ar
    22    25    12 1
    23    13    12 ar
    24    13    14 ar
    25    15    14 ar
    26    14    19 ar
    27    20    15 1
    28    15    16 ar
    29    16    17 ar
    30    17    18 ar
    31    17    39 1
    32    19    18 ar
    33    21    20 1
    34    20    40 1
    35    22    21 1
    36    21    41 1
    37    21    42 1
    38    24    22 1
    39    23    22 1
    40    22    43 1
    41    24    23 1
    42    23    44 1
    43    23    45 1
    44    24    46 1
    45    24    47 1
    46    26    25 1
    47    25    30 1
    48    27    26 1
    49    26    48 1
    50    26    49 1
    51    27    28 1
    52    27    50 1
    53    27    51 1
    54    28    29 1
    55    28    52 1
    56    29    30 1
    57    29    53 1
    58    29    54 1
    59    30    55 1
    60    30    56 1
@<TRIPOS>SUBSTRUCTURE
     1 XNB         1 TEMP              0 ****  ****    0 ROOT
