@<TRIPOS>MOLECULE
molecule
   76    81     1     0     0
SMALL
bcc


@<TRIPOS>ATOM
      1 O35          0.0000     0.0000     0.0000 o          1 XNC      -0.578100
      2 C16          1.2150     0.0000     0.0000 c          1 XNC       0.583600
      3 C17          1.9570     0.0000     1.2810 ca         1 XNC       0.372800
      4 C43          1.2560     0.0010     2.4850 ca         1 XNC      -0.192300
      5 C42          1.9640     0.0010     3.6770 ca         1 XNC      -0.102000
      6 C41          3.3490     0.0000     3.6230 ca         1 XNC      -0.230300
      7 C40          3.9800    -0.0010     2.3910 ca         1 XNC       0.415600
      8 C44          5.4860    -0.0020     2.3260 c3         1 XNC      -0.137400
      9 N39          3.2850    -0.0060     1.2740 nb         1 XNC      -0.677000
     10 N7           1.8880    -0.0070    -1.1690 n          1 XNC      -0.360000
     11 C4           3.2820    -0.0080    -1.1570 ca         1 XNC       0.091600
     12 C3           4.0170     1.0620    -0.6710 ca         1 XNC      -0.082000
     13 C2           5.3990     1.0230    -0.7390 ca         1 XNC      -0.111000
     14 C8           1.1550    -0.0190    -2.4100 c3         1 XNC       0.257200
     15 C9           1.3130    -1.2690    -3.2570 ce         1 XNC      -0.376300
     16 S12          0.1200    -1.3730    -4.5730 sy         1 XNC       1.189900
     17 O32          0.2410    -0.1320    -5.2540 o          1 XNC      -0.610800
     18 O33         -1.0900    -1.7350    -3.9210 o          1 XNC      -0.610800
     19 C13          0.7120    -2.7320    -5.6160 c3         1 XNC      -0.205600
     20 C14          1.1140    -3.8690    -4.6620 c3         1 XNC      -0.050000
     21 C37         -0.0100    -4.1250    -3.6570 c3         1 XNC      -0.095100
     22 C38          1.3950    -5.1430    -5.4610 c3         1 XNC      -0.095100
     23 C15          2.3660    -3.4320    -3.9330 c3         1 XNC      -0.077200
     24 C10          2.1990    -2.2040    -3.0650 c2         1 XNC       0.272800
     25 N11          3.1300    -2.1870    -2.0300 nu         1 XNC      -0.701400
     26 C5           3.9280    -1.1220    -1.6690 ca         1 XNC       0.117600
     27 C6           5.3120    -1.1510    -1.7590 ca         1 XNC       0.106100
     28 O36          5.9430    -2.2260    -2.3020 oh         1 XNC      -0.503100
     29 C1           6.0450    -0.0680    -1.2890 ca         1 XNC      -0.202000
     30 C18          1.6000     1.1650    -3.2320 ca         1 XNC      -0.184300
     31 C23          1.1230     2.4300    -2.9340 ca         1 XNC       0.191900
     32 F34          0.2590     2.6030    -1.9100 f          1 XNC      -0.130900
     33 C22          1.5300     3.5180    -3.6870 ca         1 XNC      -0.206000
     34 C21          2.4160     3.3380    -4.7390 ca         1 XNC       0.175100
     35 C20          2.8930     2.0680    -5.0330 ca         1 XNC      -0.235000
     36 C19          2.4880     0.9860    -4.2760 ca         1 XNC      -0.014000
     37 O24          2.8190     4.4040    -5.4790 os         1 XNC      -0.321900
     38 C25          3.7330     4.1440    -6.5460 c3         1 XNC       0.187700
     39 C26          4.0620     5.4350    -7.2510 ca         1 XNC      -0.095300
     40 C31          5.1330     6.2000    -6.8270 ca         1 XNC      -0.102500
     41 C30          5.4360     7.3850    -7.4720 ca         1 XNC      -0.132500
     42 C29          4.6670     7.8040    -8.5430 ca         1 XNC      -0.118000
     43 C28          3.5960     7.0390    -8.9660 ca         1 XNC      -0.132500
     44 C27          3.2970     5.8530    -8.3230 ca         1 XNC      -0.102500
     45 H43          0.1730     0.0010     2.4900 ha         1 XNC       0.167000
     46 H42          1.4460     0.0020     4.6290 ha         1 XNC       0.144000
     47 H41          3.9320     0.0000     4.5360 ha         1 XNC       0.140000
     48 H44          5.8900    -0.1730     3.3170 hc         1 XNC       0.051033
     49 H44A         5.8330     0.9550     1.9550 hc         1 XNC       0.051033
     50 H44B         5.8190    -0.7890     1.6610 hc         1 XNC       0.051033
     51 H3           3.5140     1.9190    -0.2390 ha         1 XNC       0.143000
     52 H2           5.9780     1.8630    -0.3750 ha         1 XNC       0.132000
     53 H8           0.1030     0.0990    -2.1790 h1         1 XNC       0.117700
     54 H13         -0.0810    -3.0650    -6.2750 h1         1 XNC       0.104200
     55 H13A         1.5710    -2.4110    -6.1920 h1         1 XNC       0.104200
     56 H37         -0.9650    -4.0960    -4.1670 hc         1 XNC       0.049533
     57 H37A         0.1270    -5.0990    -3.2020 hc         1 XNC       0.049533
     58 H37B         0.0120    -3.3620    -2.8880 hc         1 XNC       0.049533
     59 H38          0.4890    -5.4640    -5.9600 hc         1 XNC       0.049533
     60 H38A         2.1630    -4.9440    -6.1990 hc         1 XNC       0.049533
     61 H38B         1.7340    -5.9230    -4.7900 hc         1 XNC       0.049533
     62 H15          3.1340    -3.2260    -4.6690 hc         1 XNC       0.071200
     63 H15A         2.6970    -4.2500    -3.3040 hc         1 XNC       0.071200
     64 HN11         3.2300    -3.0280    -1.4970 hn         1 XNC       0.443800
     65 HO36         6.7840    -2.3370    -1.8910 ho         1 XNC       0.418000
     66 H1           7.1270    -0.0870    -1.3370 ha         1 XNC       0.130000
     67 H22          1.1570     4.5080    -3.4550 ha         1 XNC       0.157000
     68 H20          3.5870     1.9260    -5.8520 ha         1 XNC       0.134000
     69 H19          2.8600    -0.0050    -4.5060 ha         1 XNC       0.132000
     70 H25          4.6410     3.7090    -6.1470 h1         1 XNC       0.042200
     71 H25A         3.2810     3.4550    -7.2490 h1         1 XNC       0.042200
     72 H31          5.7350     5.8720    -5.9890 ha         1 XNC       0.134000
     73 H30          6.2750     7.9830    -7.1400 ha         1 XNC       0.131500
     74 H29          4.9030     8.7330    -9.0480 ha         1 XNC       0.130000
     75 H28          2.9950     7.3670    -9.8060 ha         1 XNC       0.131500
     76 H27          2.4580     5.2540    -8.6560 ha         1 XNC       0.134000
@<TRIPOS>BOND
     1     1     2 2
     2     2     3 1
     3     2    10 1
     4     3     4 ar
     5     3     9 ar
     6     4     5 ar
     7     5     6 ar
     8     6     7 ar
     9     7     8 1
    10     7     9 ar
    11    10    11 1
    12    10    14 1
    13    11    12 ar
    14    11    26 ar
    15    12    13 ar
    16    13    29 ar
    17    14    15 1
    18    14    30 1
    19    15    16 1
    20    15    24 2
    21    16    17 2
    22    16    18 2
    23    16    19 1
    24    19    20 1
    25    20    21 1
    26    20    22 1
    27    20    23 1
    28    23    24 1
    29    24    25 1
    30    25    26 1
    31    26    27 ar
    32    27    28 1
    33    27    29 ar
    34    30    31 ar
    35    30    36 ar
    36    31    32 1
    37    31    33 ar
    38    33    34 ar
    39    34    35 ar
    40    34    37 1
    41    35    36 ar
    42    37    38 1
    43    38    39 1
    44    39    40 ar
    45    39    44 ar
    46    40    41 ar
    47    41    42 ar
    48    42    43 ar
    49    43    44 ar
    50     4    45 1
    51     5    46 1
    52     6    47 1
    53     8    48 1
    54     8    49 1
    55     8    50 1
    56    12    51 1
    57    13    52 1
    58    14    53 1
    59    19    54 1
    60    19    55 1
    61    21    56 1
    62    21    57 1
    63    21    58 1
    64    22    59 1
    65    22    60 1
    66    22    61 1
    67    23    62 1
    68    23    63 1
    69    25    64 1
    70    28    65 1
    71    29    66 1
    72    33    67 1
    73    35    68 1
    74    36    69 1
    75    38    70 1
    76    38    71 1
    77    40    72 1
    78    41    73 1
    79    42    74 1
    80    43    75 1
    81    44    76 1
@<TRIPOS>SUBSTRUCTURE
     1 XNC         1 TEMP              0 ****  ****    0 ROOT
