@<TRIPOS>MOLECULE
XNC
   76    81     1     0     0
SMALL
bcc


@<TRIPOS>ATOM
      1 O35          0.0000     0.0000     0.0000 o          1 XNC      -0.621100
      2 C16          1.2150     0.0000     0.0000 c          1 XNC       0.490600
      3 C17          1.9570     0.0000     1.2810 ca         1 XNC       0.318800
      4 C43          1.2560     0.0010     2.4850 ca         1 XNC      -0.154300
      5 C42          1.9640     0.0010     3.6770 ca         1 XNC      -0.078000
      6 C41          3.3490     0.0000     3.6230 ca         1 XNC      -0.198300
      7 C40          3.9800    -0.0010     2.3910 ca         1 XNC       0.363600
      8 C44          5.4860    -0.0020     2.3260 c3         1 XNC      -0.044400
      9 N39          3.2850    -0.0060     1.2740 nb         1 XNC      -0.566000
     10 N7           1.8880    -0.0070    -1.1690 n          1 XNC       0.018000
     11 C4           3.2820    -0.0080    -1.1570 ca         1 XNC      -0.042400
     12 C3           4.0170     1.0620    -0.6710 ca         1 XNC      -0.064000
     13 C2           5.3990     1.0230    -0.7390 ca         1 XNC      -0.075000
     14 C8           1.1550    -0.0190    -2.4100 c3         1 XNC       0.174200
     15 C9           1.3130    -1.2690    -3.2570 ce         1 XNC      -0.227300
     16 S12          0.1200    -1.3730    -4.5730 sy         1 XNC       0.865900
     17 O32          0.2410    -0.1320    -5.2540 o          1 XNC      -0.577300
     18 O33         -1.0900    -1.7350    -3.9210 o          1 XNC      -0.577300
     19 C13          0.7120    -2.7320    -5.6160 c3         1 XNC       0.003400
     20 C14          1.1140    -3.8690    -4.6620 c3         1 XNC      -0.040000
     21 C37         -0.0100    -4.1250    -3.6570 c3         1 XNC      -0.016100
     22 C38          1.3950    -5.1430    -5.4610 c3         1 XNC      -0.016100
     23 C15          2.3660    -3.4320    -3.9330 c3         1 XNC      -0.014200
     24 C10          2.1990    -2.2040    -3.0650 c2         1 XNC       0.109800
     25 N11          3.1300    -2.1870    -2.0300 nu         1 XNC      -0.273400
     26 C5           3.9280    -1.1220    -1.6690 ca         1 XNC      -0.032400
     27 C6           5.3120    -1.1510    -1.7590 ca         1 XNC       0.132100
     28 O36          5.9430    -2.2260    -2.3020 oh         1 XNC      -0.483100
     29 C1           6.0450    -0.0680    -1.2890 ca         1 XNC      -0.180000
     30 C18          1.6000     1.1650    -3.2320 ca         1 XNC      -0.184300
     31 C23          1.1230     2.4300    -2.9340 ca         1 XNC       0.166900
     32 F34          0.2590     2.6030    -1.9100 f          1 XNC      -0.124900
     33 C22          1.5300     3.5180    -3.6870 ca         1 XNC      -0.181000
     34 C21          2.4160     3.3380    -4.7390 ca         1 XNC       0.183100
     35 C20          2.8930     2.0680    -5.0330 ca         1 XNC      -0.222000
     36 C19          2.4880     0.9860    -4.2760 ca         1 XNC       0.017000
     37 O24          2.8190     4.4040    -5.4790 os         1 XNC      -0.300900
     38 C25          3.7330     4.1440    -6.5460 c3         1 XNC       0.263700
     39 C26          4.0620     5.4350    -7.2510 ca         1 XNC      -0.112300
     40 C31          5.1330     6.2000    -6.8270 ca         1 XNC      -0.075000
     41 C30          5.4360     7.3850    -7.4720 ca         1 XNC      -0.105500
     42 C29          4.6670     7.8040    -8.5430 ca         1 XNC      -0.092000
     43 C28          3.5960     7.0390    -8.9660 ca         1 XNC      -0.105500
     44 C27          3.2970     5.8530    -8.3230 ca         1 XNC      -0.075000
     45 H43          0.1730     0.0010     2.4900 ha         1 XNC       0.139000
     46 H42          1.4460     0.0020     4.6290 ha         1 XNC       0.113000
     47 H41          3.9320     0.0000     4.5360 ha         1 XNC       0.116000
     48 H44          5.8900    -0.1730     3.3170 hc         1 XNC       0.014367
     49 H44A         5.8330     0.9550     1.9550 hc         1 XNC       0.014367
     50 H44B         5.8190    -0.7890     1.6610 hc         1 XNC       0.014367
     51 H3           3.5140     1.9190    -0.2390 ha         1 XNC       0.116000
     52 H2           5.9780     1.8630    -0.3750 ha         1 XNC       0.103000
     53 H8           0.1030     0.0990    -2.1790 h1         1 XNC       0.098700
     54 H13         -0.0810    -3.0650    -6.2750 h1         1 XNC       0.073700
     55 H13A         1.5710    -2.4110    -6.1920 h1         1 XNC       0.073700
     56 H37         -0.9650    -4.0960    -4.1670 hc         1 XNC       0.020033
     57 H37A         0.1270    -5.0990    -3.2020 hc         1 XNC       0.020033
     58 H37B         0.0120    -3.3620    -2.8880 hc         1 XNC       0.020033
     59 H38          0.4890    -5.4640    -5.9600 hc         1 XNC       0.020033
     60 H38A         2.1630    -4.9440    -6.1990 hc         1 XNC       0.020033
     61 H38B         1.7340    -5.9230    -4.7900 hc         1 XNC       0.020033
     62 H15          3.1340    -3.2260    -4.6690 hc         1 XNC       0.036700
     63 H15A         2.6970    -4.2500    -3.3040 hc         1 XNC       0.036700
     64 HN11         3.2300    -3.0280    -1.4970 hn         1 XNC       0.286800
     65 HO36         6.7840    -2.3370    -1.8910 ho         1 XNC       0.403000
     66 H1           7.1270    -0.0870    -1.3370 ha         1 XNC       0.108000
     67 H22          1.1570     4.5080    -3.4550 ha         1 XNC       0.131000
     68 H20          3.5870     1.9260    -5.8520 ha         1 XNC       0.118000
     69 H19          2.8600    -0.0050    -4.5060 ha         1 XNC       0.105000
     70 H25          4.6410     3.7090    -6.1470 h1         1 XNC       0.005700
     71 H25A         3.2810     3.4550    -7.2490 h1         1 XNC       0.005700
     72 H31          5.7350     5.8720    -5.9890 ha         1 XNC       0.106500
     73 H30          6.2750     7.9830    -7.1400 ha         1 XNC       0.103500
     74 H29          4.9030     8.7330    -9.0480 ha         1 XNC       0.102000
     75 H28          2.9950     7.3670    -9.8060 ha         1 XNC       0.103500
     76 H27          2.4580     5.2540    -8.6560 ha         1 XNC       0.106500
@<TRIPOS>BOND
     1     1     2 2   
     2     2     3 1   
     3     2    10 1   
     4     3     4 ar  
     5     3     9 ar  
     6     4     5 ar  
     7     4    45 1   
     8     5     6 ar  
     9     5    46 1   
    10     6     7 ar  
    11     6    47 1   
    12     7     8 1   
    13     7     9 ar  
    14     8    48 1   
    15     8    49 1   
    16     8    50 1   
    17    10    11 1   
    18    10    14 1   
    19    11    12 ar  
    20    11    26 ar  
    21    12    13 ar  
    22    12    51 1   
    23    13    29 ar  
    24    13    52 1   
    25    14    15 1   
    26    14    30 1   
    27    14    53 1   
    28    15    16 1   
    29    15    24 2   
    30    16    17 2   
    31    16    18 2   
    32    16    19 1   
    33    19    20 1   
    34    19    54 1   
    35    19    55 1   
    36    20    21 1   
    37    20    22 1   
    38    20    23 1   
    39    21    56 1   
    40    21    57 1   
    41    21    58 1   
    42    22    59 1   
    43    22    60 1   
    44    22    61 1   
    45    23    24 1   
    46    23    62 1   
    47    23    63 1   
    48    24    25 1   
    49    25    26 1   
    50    25    64 1   
    51    26    27 ar  
    52    27    28 1   
    53    27    29 ar  
    54    28    65 1   
    55    29    66 1   
    56    30    31 ar  
    57    30    36 ar  
    58    31    32 1   
    59    31    33 ar  
    60    33    34 ar  
    61    33    67 1   
    62    34    35 ar  
    63    34    37 1   
    64    35    36 ar  
    65    35    68 1   
    66    36    69 1   
    67    37    38 1   
    68    38    39 1   
    69    38    70 1   
    70    38    71 1   
    71    39    40 ar  
    72    39    44 ar  
    73    40    41 ar  
    74    40    72 1   
    75    41    42 ar  
    76    41    73 1   
    77    42    43 ar  
    78    42    74 1   
    79    43    44 ar  
    80    43    75 1   
    81    44    76 1   
@<TRIPOS>SUBSTRUCTURE
     1 XNC         1 TEMP              0 ****  ****    0 ROOT
