@<TRIPOS>MOLECULE
molecule
   52    55     1     0     0
SMALL
bcc


@<TRIPOS>ATOM
      1 Cl29         0.0000     0.0000     0.0000 cl         1 XND      -0.105400
      2 C22          1.7360     0.0000     0.0000 ca         1 XND       0.039400
      3 C21          2.4280     0.0000     1.1980 ca         1 XND      -0.119000
      4 C20          3.8110    -0.0010     1.1970 ca         1 XND       0.055400
      5 Cl28         4.6800    -0.0020     2.7000 cl         1 XND      -0.084400
      6 C23          2.4280    -0.0040    -1.1980 ca         1 XND      -0.124000
      7 C24          3.8100    -0.0050    -1.1980 ca         1 XND      -0.095000
      8 C16          4.5020     0.0010    -0.0020 ca         1 XND      -0.078300
      9 C11          6.0090     0.0010    -0.0030 c3         1 XND       0.228200
     10 C5           6.4870    -0.4380    -1.3660 ce         1 XND      -0.306400
     11 C6           6.2610    -1.8090    -1.6370 c          1 XND       0.578300
     12 O25          5.7080    -2.4890    -0.7940 o          1 XND      -0.535100
     13 C1           6.6760    -2.4530    -2.9240 c3         1 XND      -0.165400
     14 N10          6.4680     1.3140     0.3980 n          1 XND      -0.384000
     15 C17          7.2910     1.4330     1.4590 c          1 XND       0.668100
     16 C19          7.7770     2.7940     1.8860 c3         1 XND      -0.172100
     17 O18          7.6400     0.4450     2.0690 o          1 XND      -0.582100
     18 C9           6.0740     2.4580    -0.2970 ca         1 XND       0.071600
     19 C15          5.2870     3.4310     0.2990 ca         1 XND      -0.151000
     20 C14          4.8810     4.5290    -0.4400 ca         1 XND      -0.115000
     21 C13          5.2540     4.6580    -1.7650 ca         1 XND      -0.195000
     22 C12          6.0560     3.6930    -2.3620 ca         1 XND       0.115100
     23 O30          6.4230     3.8160    -3.6670 oh         1 XND      -0.509100
     24 C8           6.4790     2.6050    -1.6140 ca         1 XND       0.103600
     25 N7           7.3670     1.6580    -2.1150 nu         1 XND      -0.686400
     26 C4           7.0820     0.3420    -2.2820 c2         1 XND       0.221800
     27 C3           7.4770    -0.2250    -3.6360 c3         1 XND      -0.056200
     28 C2           7.8820    -1.6910    -3.4860 c3         1 XND      -0.067000
     29 C27          9.0650    -1.8070    -2.5220 c3         1 XND      -0.086600
     30 C26          8.2670    -2.2640    -4.8520 c3         1 XND      -0.086600
     31 H21          1.8860     0.0040     2.1370 ha         1 XND       0.156000
     32 H23          1.8870    -0.0090    -2.1360 ha         1 XND       0.145000
     33 H24          4.3510    -0.0060    -2.1370 ha         1 XND       0.144000
     34 H11          6.3570    -0.7190     0.7280 h1         1 XND       0.134700
     35 H1           6.9680    -3.4770    -2.7270 hc         1 XND       0.076200
     36 H1A          5.8570    -2.3870    -3.6310 hc         1 XND       0.076200
     37 H19          8.6740     2.6870     2.4830 hc         1 XND       0.062700
     38 H19A         7.0090     3.2840     2.4740 hc         1 XND       0.062700
     39 H19B         7.9960     3.3910     1.0090 hc         1 XND       0.062700
     40 H15          5.6420     3.7040     1.2860 ha         1 XND       0.142000
     41 H14          4.9760     5.4580     0.1100 ha         1 XND       0.145000
     42 H13          4.4310     4.9640    -2.4000 ha         1 XND       0.166000
     43 HO30         6.9560     4.5860    -3.7720 ho         1 XND       0.426000
     44 HN7          8.2820     1.9720    -2.3740 hn         1 XND       0.447800
     45 H3           6.6360    -0.1530    -4.3140 hc         1 XND       0.064200
     46 H3A          8.3140     0.3390    -4.0310 hc         1 XND       0.064200
     47 H27          8.7660    -1.4600    -1.5400 hc         1 XND       0.041200
     48 H27A         9.8870    -1.2010    -2.8840 hc         1 XND       0.041200
     49 H27B         9.3790    -2.8410    -2.4590 hc         1 XND       0.041200
     50 H26          9.1260    -1.7300    -5.2390 hc         1 XND       0.041200
     51 H26A         8.5120    -3.3140    -4.7460 hc         1 XND       0.041200
     52 H26B         7.4350    -2.1550    -5.5370 hc         1 XND       0.041200
@<TRIPOS>BOND
     1     1     2 1
     2     2     3 ar
     3     2     6 ar
     4     3     4 ar
     5     4     5 1
     6     4     8 ar
     7     6     7 ar
     8     7     8 ar
     9     8     9 1
    10     9    10 1
    11     9    14 1
    12    10    11 1
    13    10    26 2
    14    11    12 2
    15    11    13 1
    16    13    28 1
    17    14    15 1
    18    14    18 1
    19    15    16 1
    20    15    17 2
    21    18    19 ar
    22    18    24 ar
    23    19    20 ar
    24    20    21 ar
    25    21    22 ar
    26    22    23 1
    27    22    24 ar
    28    24    25 1
    29    25    26 1
    30    26    27 1
    31    27    28 1
    32    28    29 1
    33    28    30 1
    34     3    31 1
    35     6    32 1
    36     7    33 1
    37     9    34 1
    38    13    35 1
    39    13    36 1
    40    16    37 1
    41    16    38 1
    42    16    39 1
    43    19    40 1
    44    20    41 1
    45    21    42 1
    46    23    43 1
    47    25    44 1
    48    27    45 1
    49    27    46 1
    50    29    47 1
    51    29    48 1
    52    29    49 1
    53    30    50 1
    54    30    51 1
    55    30    52 1
@<TRIPOS>SUBSTRUCTURE
     1 XND         1 TEMP              0 ****  ****    0 ROOT
