@<TRIPOS>MOLECULE
molecule
   68    72     1     0     0
SMALL
bcc


@<TRIPOS>ATOM
      1 C1           0.0000     0.0000     0.0000 cc         1 XNH       0.565100
      2 C2           1.7340     0.0000     1.3240 cd         1 XNH      -0.153300
      3 C3           3.1040    -0.0000     1.6510 cd         1 XNH       0.001000
      4 N6          12.5470     8.5670    -6.0860 n          1 XNH      -0.482800
      5 C7           4.7480     1.0460    -3.9110 c3         1 XNH      -0.093900
      6 C8           6.2630     1.0720    -3.6960 c3         1 XNH      -0.018400
      7 C9           6.5660     1.2890    -2.2110 c3         1 XNH      -0.093900
      8 C10          5.9820     0.1270    -1.4010 c3         1 XNH       0.234800
      9 C11          6.8650     2.1960    -4.5000 ca         1 XNH      -0.124300
     10 C12          6.4750     3.5010    -4.2620 ca         1 XNH      -0.086000
     11 C13          7.0260     4.5320    -4.9990 ca         1 XNH      -0.189000
     12 C14          7.9710     4.2570    -5.9770 ca         1 XNH       0.142100
     13 C15          9.4790     4.9140    -7.6920 c3         1 XNH       0.139400
     14 C16          9.9740     6.1770    -8.4000 c3         1 XNH       0.158800
     15 C19         13.3970     9.4210    -5.2520 c3         1 XNH       0.101300
     16 C20         11.8760     9.1260    -7.0980 c          1 XNH       0.710500
     17 C21         11.0070     8.3330    -8.0340 c3         1 XNH       0.099500
     18 C22         11.7450     8.1270    -9.3580 c3         1 XNH      -0.128100
     19 C24          7.8110     1.9200    -5.4710 ca         1 XNH      -0.086000
     20 O2          11.9720    10.3220    -7.2670 o          1 XNH      -0.650500
     21 C18         12.4760     7.1400    -5.7770 c3         1 XNH       0.115000
     22 C17         11.9380     6.3700    -6.9830 c3         1 XNH       0.129800
     23 N5          10.6950     7.0250    -7.4420 n3         1 XNH      -0.706600
     24 O1           8.5130     5.2710    -6.7020 os         1 XNH      -0.309900
     25 C23          8.3600     2.9480    -6.2130 ca         1 XNH      -0.189000
     26 C6           4.1440    -0.1190    -3.1200 c3         1 XNH       0.234800
     27 N4           4.5520     0.0040    -1.7130 nh         1 XNH      -0.817300
     28 C5           3.6020     0.0030    -0.6980 cc         1 XNH       0.680200
     29 C4           4.0220     0.0010     0.6480 cc         1 XNH      -0.290300
     30 N2           2.3260     0.0020    -1.0040 nd         1 XNH      -0.570800
     31 N3           1.3560     0.0000     0.0000 na         1 XNH       0.102300
     32 N1           0.6240     0.0010     2.0400 nc         1 XNH      -0.049000
     33 N           -0.3950     0.0040     1.2530 nc         1 XNH      -0.427700
     34 O           -0.8040     0.0020    -1.0950 os         1 XNH      -0.379400
     35 C           -2.2140     0.0010    -0.8650 c3         1 XNH       0.145700
     36 H1           3.4220    -0.0020     2.6860 ha         1 XNH       0.166000
     37 H2           4.5360     0.9140    -4.9650 hc         1 XNH       0.056950
     38 H3           4.3190     1.9780    -3.5640 hc         1 XNH       0.056950
     39 H4           6.6870     0.1270    -4.0140 hc         1 XNH       0.054700
     40 H5           6.1170     2.2190    -1.8840 hc         1 XNH       0.056950
     41 H6           7.6380     1.3280    -2.0640 hc         1 XNH       0.056950
     42 H7           6.4910    -0.7920    -1.6660 h1         1 XNH       0.058450
     43 H8           6.1060     0.3250    -0.3430 h1         1 XNH       0.058450
     44 H9           5.7370     3.7150    -3.4980 ha         1 XNH       0.133500
     45 H10          6.7200     5.5550    -4.8120 ha         1 XNH       0.140000
     46 H11         10.3150     4.4160    -7.2160 h1         1 XNH       0.036700
     47 H12          9.0260     4.2480    -8.4160 h1         1 XNH       0.036700
     48 H13          9.1280     6.7220    -8.7990 h1         1 XNH       0.053200
     49 H14         10.6390     5.9000    -9.2090 h1         1 XNH       0.053200
     50 H15         14.2120     9.8120    -5.8480 h1         1 XNH       0.043700
     51 H16         12.8090    10.2430    -4.8600 h1         1 XNH       0.043700
     52 H17         13.7970     8.8400    -4.4300 h1         1 XNH       0.043700
     53 H18         10.0860     8.8740    -8.2100 h1         1 XNH       0.101700
     54 H19         12.0960     9.0830    -9.7280 hc         1 XNH       0.048367
     55 H20         12.5900     7.4680    -9.2020 hc         1 XNH       0.048367
     56 H21         11.0710     7.6850   -10.0820 hc         1 XNH       0.048367
     57 H22          8.1150     0.8960    -5.6550 ha         1 XNH       0.133500
     58 H23         11.8150     6.9900    -4.9320 h1         1 XNH       0.050200
     59 H24         13.4670     6.7770    -5.5340 h1         1 XNH       0.050200
     60 H25         11.7240     5.3470    -6.6950 h1         1 XNH       0.047200
     61 H26         12.6710     6.3840    -7.7800 h1         1 XNH       0.047200
     62 H28          9.0990     2.7310    -6.9740 ha         1 XNH       0.140000
     63 H29          3.0630    -0.0810    -3.1880 h1         1 XNH       0.058450
     64 H30          4.5070    -1.0570    -3.5220 h1         1 XNH       0.058450
     65 H31          5.0790    -0.0070     0.8840 ha         1 XNH       0.151000
     66 H32         -2.7350     0.0010    -1.8140 h1         1 XNH       0.051367
     67 H33         -2.4870    -0.8830    -0.3030 h1         1 XNH       0.051367
     68 H34         -2.4880     0.8860    -0.3020 h1         1 XNH       0.051367
@<TRIPOS>BOND
     1    33    32 1
     2    33     1 2
     3    35    34 1
     4    32     2 2
     5     1    34 1
     6     1    31 1
     7     2    31 1
     8     2     3 1
     9    31    30 1
    10     3    29 2
    11    30    28 2
    12    29    28 1
    13    28    27 1
    14    27    26 1
    15    27     8 1
    16    26     5 1
    17     8     7 1
    18     5     6 1
    19     7     6 1
    20     6     9 1
    21     9    19 ar
    22     9    10 ar
    23    19    25 ar
    24    10    11 ar
    25    25    12 ar
    26    11    12 ar
    27    12    24 1
    28    24    13 1
    29    13    14 1
    30    14    23 1
    31    23    22 1
    32    23    17 1
    33    22    21 1
    34    21     4 1
    35    17    16 1
    36    17    18 1
    37     4    16 1
    38     4    15 1
    39    16    20 2
    40     3    36 1
    41     5    37 1
    42     5    38 1
    43     6    39 1
    44     7    40 1
    45     7    41 1
    46     8    42 1
    47     8    43 1
    48    10    44 1
    49    11    45 1
    50    13    46 1
    51    13    47 1
    52    14    48 1
    53    14    49 1
    54    15    50 1
    55    15    51 1
    56    15    52 1
    57    17    53 1
    58    18    54 1
    59    18    55 1
    60    18    56 1
    61    19    57 1
    62    21    58 1
    63    21    59 1
    64    22    60 1
    65    22    61 1
    66    25    62 1
    67    26    63 1
    68    26    64 1
    69    29    65 1
    70    35    66 1
    71    35    67 1
    72    35    68 1
@<TRIPOS>SUBSTRUCTURE
     1 XNH         1 TEMP              0 ****  ****    0 ROOT
