@<TRIPOS>MOLECULE
XNH
   68    72     1     0     0
SMALL
bcc


@<TRIPOS>ATOM
      1 C1           0.0000     0.0000     0.0000 cc         1 XNH       0.373100
      2 C2           1.7340     0.0000     1.3240 cc         1 XNH      -0.363300
      3 C3           3.1040    -0.0000     1.6510 cc         1 XNH       0.077000
      4 N6          12.5470     8.5670    -6.0860 n          1 XNH      -0.139800
      5 C7           4.7480     1.0460    -3.9110 c3         1 XNH      -0.042900
      6 C8           6.2630     1.0720    -3.6960 c3         1 XNH       0.013600
      7 C9           6.5660     1.2890    -2.2110 c3         1 XNH      -0.042900
      8 C10          5.9820     0.1270    -1.4010 c3         1 XNH       0.161800
      9 C11          6.8650     2.1960    -4.5000 ca         1 XNH      -0.136300
     10 C12          6.4750     3.5010    -4.2620 ca         1 XNH      -0.054000
     11 C13          7.0260     4.5320    -4.9990 ca         1 XNH      -0.175000
     12 C14          7.9710     4.2570    -5.9770 ca         1 XNH       0.151100
     13 C15          9.4790     4.9140    -7.6920 c3         1 XNH       0.194400
     14 C16          9.9740     6.1770    -8.4000 c3         1 XNH       0.143800
     15 C19         13.3970     9.4210    -5.2520 c3         1 XNH       0.089300
     16 C20         11.8760     9.1260    -7.0980 c          1 XNH       0.628500
     17 C21         11.0070     8.3330    -8.0340 c3         1 XNH       0.065500
     18 C22         11.7450     8.1270    -9.3580 c3         1 XNH      -0.038100
     19 C24          7.8110     1.9200    -5.4710 ca         1 XNH      -0.054000
     20 O2          11.9720    10.3220    -7.2670 o          1 XNH      -0.690500
     21 C18         12.4760     7.1400    -5.7770 c3         1 XNH       0.063000
     22 C17         11.9380     6.3700    -6.9830 c3         1 XNH       0.113800
     23 N5          10.6950     7.0250    -7.4420 n3         1 XNH      -0.527600
     24 O1           8.5130     5.2710    -6.7020 os         1 XNH      -0.286900
     25 C23          8.3600     2.9480    -6.2130 ca         1 XNH      -0.175000
     26 C6           4.1440    -0.1190    -3.1200 c3         1 XNH       0.161800
     27 N4           4.5520     0.0040    -1.7130 nh         1 XNH      -0.445300
     28 C5           3.6020     0.0030    -0.6980 cd         1 XNH       0.589200
     29 C4           4.0220     0.0010     0.6480 cd         1 XNH      -0.318300
     30 N2           2.3260     0.0020    -1.0040 nc         1 XNH      -0.725800
     31 N3           1.3560     0.0000     0.0000 na         1 XNH       0.602300
     32 N1           0.6240     0.0010     2.0400 nd         1 XNH      -0.016000
     33 N           -0.3950     0.0040     1.2530 nd         1 XNH      -0.417700
     34 O           -0.8040     0.0020    -1.0950 os         1 XNH      -0.363400
     35 C           -2.2140     0.0010    -0.8650 c3         1 XNH       0.263700
     36 H1           3.4220    -0.0020     2.6860 ha         1 XNH       0.122000
     37 H2           4.5360     0.9140    -4.9650 hc         1 XNH       0.029450
     38 H3           4.3190     1.9780    -3.5640 hc         1 XNH       0.029450
     39 H4           6.6870     0.1270    -4.0140 hc         1 XNH       0.031700
     40 H5           6.1170     2.2190    -1.8840 hc         1 XNH       0.029450
     41 H6           7.6380     1.3280    -2.0640 hc         1 XNH       0.029450
     42 H7           6.4910    -0.7920    -1.6660 h1         1 XNH       0.033950
     43 H8           6.1060     0.3250    -0.3430 h1         1 XNH       0.033950
     44 H9           5.7370     3.7150    -3.4980 ha         1 XNH       0.107000
     45 H10          6.7200     5.5550    -4.8120 ha         1 XNH       0.119000
     46 H11         10.3150     4.4160    -7.2160 h1         1 XNH       0.005700
     47 H12          9.0260     4.2480    -8.4160 h1         1 XNH       0.005700
     48 H13          9.1280     6.7220    -8.7990 h1         1 XNH       0.026200
     49 H14         10.6390     5.9000    -9.2090 h1         1 XNH       0.026200
     50 H15         14.2120     9.8120    -5.8480 h1         1 XNH       0.012033
     51 H16         12.8090    10.2430    -4.8600 h1         1 XNH       0.012033
     52 H17         13.7970     8.8400    -4.4300 h1         1 XNH       0.012033
     53 H18         10.0860     8.8740    -8.2100 h1         1 XNH       0.066700
     54 H19         12.0960     9.0830    -9.7280 hc         1 XNH       0.019033
     55 H20         12.5900     7.4680    -9.2020 hc         1 XNH       0.019033
     56 H21         11.0710     7.6850   -10.0820 hc         1 XNH       0.019033
     57 H22          8.1150     0.8960    -5.6550 ha         1 XNH       0.107000
     58 H23         11.8150     6.9900    -4.9320 h1         1 XNH       0.020200
     59 H24         13.4670     6.7770    -5.5340 h1         1 XNH       0.020200
     60 H25         11.7240     5.3470    -6.6950 h1         1 XNH       0.026200
     61 H26         12.6710     6.3840    -7.7800 h1         1 XNH       0.026200
     62 H28          9.0990     2.7310    -6.9740 ha         1 XNH       0.119000
     63 H29          3.0630    -0.0810    -3.1880 h1         1 XNH       0.033950
     64 H30          4.5070    -1.0570    -3.5220 h1         1 XNH       0.033950
     65 H31          5.0790    -0.0070     0.8840 ha         1 XNH       0.136000
     66 H32         -2.7350     0.0010    -1.8140 h1         1 XNH       0.002700
     67 H33         -2.4870    -0.8830    -0.3030 h1         1 XNH       0.002700
     68 H34         -2.4880     0.8860    -0.3020 h1         1 XNH       0.002700
@<TRIPOS>BOND
     1     1    31 1   
     2     1    33 2   
     3     1    34 1   
     4     2     3 1   
     5     2    31 1   
     6     2    32 2   
     7     3    29 2   
     8     3    36 1   
     9     4    15 1   
    10     4    16 1   
    11     4    21 1   
    12     5     6 1   
    13     5    26 1   
    14     5    37 1   
    15     5    38 1   
    16     6     7 1   
    17     6     9 1   
    18     6    39 1   
    19     7     8 1   
    20     7    40 1   
    21     7    41 1   
    22     8    27 1   
    23     8    42 1   
    24     8    43 1   
    25     9    10 ar  
    26     9    19 ar  
    27    10    11 ar  
    28    10    44 1   
    29    11    12 ar  
    30    11    45 1   
    31    12    24 1   
    32    12    25 ar  
    33    13    14 1   
    34    13    24 1   
    35    13    46 1   
    36    13    47 1   
    37    14    23 1   
    38    14    48 1   
    39    14    49 1   
    40    15    50 1   
    41    15    51 1   
    42    15    52 1   
    43    16    17 1   
    44    16    20 2   
    45    17    18 1   
    46    17    23 1   
    47    17    53 1   
    48    18    54 1   
    49    18    55 1   
    50    18    56 1   
    51    19    25 ar  
    52    19    57 1   
    53    21    22 1   
    54    21    58 1   
    55    21    59 1   
    56    22    23 1   
    57    22    60 1   
    58    22    61 1   
    59    25    62 1   
    60    26    27 1   
    61    26    63 1   
    62    26    64 1   
    63    27    28 1   
    64    28    29 1   
    65    28    30 2   
    66    29    65 1   
    67    30    31 1   
    68    32    33 1   
    69    34    35 1   
    70    35    66 1   
    71    35    67 1   
    72    35    68 1   
@<TRIPOS>SUBSTRUCTURE
     1 XNH         1 TEMP              0 ****  ****    0 ROOT
