@<TRIPOS>MOLECULE
XNI
   65    69     1     0     0
SMALL
bcc


@<TRIPOS>ATOM
      1 C1           0.0000     0.0000     0.0000 c3         1 XNI      -0.110400
      2 C2           1.5340     0.0000     0.0000 c3         1 XNI      -0.063000
      3 C3           1.9990     0.0000     1.4550 c3         1 XNI       0.008800
      4 C4           1.4720    -1.2360     2.1660 c2         1 XNI       0.054800
      5 C5           0.2850    -1.7630     1.8250 ce         1 XNI      -0.297400
      6 C6          -0.4780    -1.1860     0.7820 c          1 XNI       0.632300
      7 C8           1.8730    -2.0890     4.4110 ca         1 XNI      -0.007400
      8 N10          0.5060    -3.7280     3.3340 n          1 XNI      -0.011000
      9 C11         -0.3640    -2.9690     2.4610 c3         1 XNI       0.151200
     10 C12          2.3410    -1.4580     5.5490 ca         1 XNI      -0.112000
     11 C15          0.6490    -3.6580     5.7550 ca         1 XNI      -0.064000
     12 C16         -1.5560    -2.5060     3.2580 ca         1 XNI      -0.141300
     13 C17          0.8330    -4.9930     3.0060 c          1 XNI       0.578100
     14 C19          1.7380    -5.7950     3.9070 c3         1 XNI      -0.077100
     15 C21         -3.9230    -2.4880     3.6280 ca         1 XNI      -0.082600
     16 C23         -2.4680    -1.2430     5.0770 ca         1 XNI      -0.213000
     17 C24         -1.3760    -1.6700     4.3440 ca         1 XNI      -0.074000
     18 C27         -5.8600    -0.0170     7.2250 ca         1 XNI      -0.114300
     19 C30         -8.2460     0.6420     8.4570 ca         1 XNI      -0.090000
     20 C31         -7.5460    -0.4790     8.8610 ca         1 XNI      -0.105000
     21 C32         -6.3530    -0.8080     8.2460 ca         1 XNI      -0.074500
     22 C34          2.0520    -1.2530    -0.7100 c3         1 XNI       0.001900
     23 C35          2.0520     1.2520    -0.7100 c3         1 XNI       0.001900
     24 Cl36        -5.5190    -2.9990     3.1760 cl         1 XNI      -0.003400
     25 C20         -2.8280    -2.9130     2.8980 ca         1 XNI      -0.014000
     26 C22         -3.7440    -1.6530     4.7230 ca         1 XNI       0.158100
     27 C26         -4.5600    -0.3750     6.5550 c3         1 XNI       0.263700
     28 C29         -7.7590     1.4270     7.4280 ca         1 XNI      -0.105000
     29 C28         -6.5630     1.1000     6.8170 ca         1 XNI      -0.074500
     30 O33         -1.5600    -1.6700     0.5110 o          1 XNI      -0.574100
     31 O18          0.4010    -5.4870     1.9870 o          1 XNI      -0.630100
     32 C9           1.0100    -3.1700     4.5100 ca         1 XNI      -0.101400
     33 C14          1.1290    -3.0350     6.8940 ca         1 XNI      -0.121000
     34 C13          1.9640    -1.9380     6.7940 ca         1 XNI      -0.100000
     35 N7           2.2880    -1.7220     3.1360 nu         1 XNI      -0.244400
     36 H1          -0.3630    -0.0670    -1.0190 hc         1 XNI       0.044700
     37 H1A         -0.3630     0.9100     0.4630 hc         1 XNI       0.044700
     38 H3           3.0820    -0.0030     1.4850 hc         1 XNI       0.030700
     39 H3A          1.6230     0.8860     1.9510 hc         1 XNI       0.030700
     40 H11         -0.7090    -3.6260     1.6710 h1         1 XNI       0.097700
     41 H12          3.3990    -1.2340     5.4940 ha         1 XNI       0.120000
     42 H15         -0.0060    -4.5170     5.8360 ha         1 XNI       0.120000
     43 H19          1.2040    -6.0620     4.8100 hc         1 XNI       0.027033
     44 H19A         2.6090    -5.2030     4.1630 hc         1 XNI       0.027033
     45 H19B         2.0530    -6.6950     3.3930 hc         1 XNI       0.027033
     46 H23         -2.3260    -0.5900     5.9290 ha         1 XNI       0.120000
     47 H24         -0.3790    -1.3490     4.6220 ha         1 XNI       0.117000
     48 H30         -9.1820     0.8980     8.9380 ha         1 XNI       0.102000
     49 H31         -7.9300    -1.0970     9.6640 ha         1 XNI       0.104000
     50 H32         -5.8040    -1.6870     8.5630 ha         1 XNI       0.106500
     51 H34          3.1090    -1.3710    -0.5070 hc         1 XNI       0.010367
     52 H34A         1.5150    -2.1210    -0.3480 hc         1 XNI       0.010367
     53 H34B         1.8970    -1.1520    -1.7780 hc         1 XNI       0.010367
     54 H35          3.1350     1.2350    -0.7280 hc         1 XNI       0.010367
     55 H35A         1.7140     2.1340    -0.1800 hc         1 XNI       0.010367
     56 H35B         1.6740     1.2740    -1.7250 hc         1 XNI       0.010367
     57 H20         -2.9640    -3.5860     2.0600 ha         1 XNI       0.131000
     58 H26         -4.0710     0.5280     6.2080 h1         1 XNI       0.003200
     59 H26A        -3.9170    -0.8850     7.2620 h1         1 XNI       0.003200
     60 H29         -8.3090     2.3040     7.1080 ha         1 XNI       0.104000
     61 H28         -6.1790     1.7180     6.0140 ha         1 XNI       0.106500
     62 H14          0.3650    -2.9070     7.6510 ha         1 XNI       0.112000
     63 H13          1.6910    -1.1450     7.4790 ha         1 XNI       0.116000
     64 HN7          3.2590    -1.8220     2.9180 hn         1 XNI       0.286800
     65 O25         -4.8180    -1.2340     5.4410 os         1 XNI      -0.290900
@<TRIPOS>BOND
     1     1     2 1   
     2     1     6 1   
     3     1    36 1   
     4     1    37 1   
     5     2     3 1   
     6     2    22 1   
     7     2    23 1   
     8     3     4 1   
     9     3    38 1   
    10     3    39 1   
    11     4     5 2   
    12     4    35 1   
    13     5     6 1   
    14     5     9 1   
    15     6    30 2   
    16     7    10 ar  
    17     7    32 ar  
    18     7    35 1   
    19     8     9 1   
    20     8    13 1   
    21     8    32 1   
    22     9    12 1   
    23     9    40 1   
    24    10    34 ar  
    25    10    41 1   
    26    11    32 ar  
    27    11    33 ar  
    28    11    42 1   
    29    12    17 ar  
    30    12    25 ar  
    31    13    14 1   
    32    13    31 2   
    33    14    43 1   
    34    14    44 1   
    35    14    45 1   
    36    15    24 1   
    37    15    25 ar  
    38    15    26 ar  
    39    16    17 ar  
    40    16    26 ar  
    41    16    46 1   
    42    17    47 1   
    43    18    21 ar  
    44    18    27 1   
    45    18    29 ar  
    46    19    20 ar  
    47    19    28 ar  
    48    19    48 1   
    49    20    21 ar  
    50    20    49 1   
    51    21    50 1   
    52    22    51 1   
    53    22    52 1   
    54    22    53 1   
    55    23    54 1   
    56    23    55 1   
    57    23    56 1   
    58    25    57 1   
    59    26    65 1   
    60    27    58 1   
    61    27    59 1   
    62    27    65 1   
    63    28    29 ar  
    64    28    60 1   
    65    29    61 1   
    66    33    34 ar  
    67    33    62 1   
    68    34    63 1   
    69    35    64 1   
@<TRIPOS>SUBSTRUCTURE
     1 XNI         1 TEMP              0 ****  ****    0 ROOT
