@<TRIPOS>MOLECULE
molecule
   44    47     1     0     0
SMALL
bcc


@<TRIPOS>ATOM
      1 CAA          0.0000     0.0000     0.0000 c3         1 XNL      -0.077900
      2 CAB          1.5300     0.0000     0.0000 c3         1 XNL      -0.077900
      3 CAC          2.0400     0.0000     1.4420 c3         1 XNL      -0.081400
      4 CAD          1.5300    -1.2480     2.1640 c3         1 XNL      -0.077900
      5 CAE         -0.0000    -1.2480     2.1640 c3         1 XNL      -0.077900
      6 CAF         -0.5100    -1.2480     0.7220 c3         1 XNL      -0.087700
      7 CAG         -2.0400    -1.2480     0.7230 c3         1 XNL       0.127100
      8 OAV         -2.5180    -1.2480    -0.6240 oh         1 XNL      -0.601800
      9 CAH         -2.5510    -2.4980     1.4450 c3         1 XNL       0.045300
     10 NAI         -4.0100    -2.4380     1.5500 na         1 XNL      -0.073300
     11 CAM         -4.8920    -2.9430     0.6110 ca         1 XNL       0.021800
     12 CAU         -4.6950    -3.5970    -0.6010 ca         1 XNL      -0.143000
     13 CAT         -5.7780    -4.0010    -1.3510 ca         1 XNL      -0.095000
     14 CAS         -7.0710    -3.7620    -0.9100 ca         1 XNL      -0.164000
     15 CAR         -7.2870    -3.1150     0.2870 ca         1 XNL      -0.070000
     16 CAL         -6.2010    -2.7010     1.0570 cp         1 XNL      -0.102000
     17 CAK         -6.0800    -2.0060     2.3480 cp         1 XNL      -0.060000
     18 CAJ         -4.7040    -1.8750     2.6050 ca         1 XNL      -0.123500
     19 CAN         -4.3070    -1.2480     3.7800 ca         1 XNL       0.394200
     20 NAO         -5.2020    -0.7930     4.6310 nb         1 XNL      -0.665000
     21 CAP         -6.5010    -0.9030     4.4210 ca         1 XNL       0.375200
     22 CAQ         -6.9880    -1.5040     3.2790 ca         1 XNL      -0.195300
     23 H1          -0.3600    -0.0030    -1.0220 hc         1 XNL       0.043200
     24 H2          -0.3600     0.8840     0.5120 hc         1 XNL       0.043200
     25 H3           1.8900     0.8860    -0.5090 hc         1 XNL       0.043450
     26 H4           1.8900    -0.8860    -0.5090 hc         1 XNL       0.043450
     27 H5           3.1230    -0.0030     1.4410 hc         1 XNL       0.042200
     28 H6           1.6770     0.8840     1.9520 hc         1 XNL       0.042200
     29 H7           1.8890    -1.2450     3.1860 hc         1 XNL       0.043450
     30 H8           1.8890    -2.1320     1.6510 hc         1 XNL       0.043450
     31 H9          -0.3600    -0.3620     2.6730 hc         1 XNL       0.043200
     32 H10         -0.3600    -2.1350     2.6730 hc         1 XNL       0.043200
     33 H11         -0.1450    -2.1320     0.2120 hc         1 XNL       0.065700
     34 H12         -2.4010    -0.3630     1.2330 h1         1 XNL       0.044700
     35 H13         -2.8820    -0.4030    -0.8290 ho         1 XNL       0.409000
     36 H14         -2.2650    -3.3800     0.8860 h1         1 XNL       0.071200
     37 H15         -2.1190    -2.5430     2.4370 h1         1 XNL       0.071200
     38 H16         -3.6890    -3.7890    -0.9550 ha         1 XNL       0.140000
     39 H17         -5.6180    -4.5100    -2.2940 ha         1 XNL       0.133000
     40 H18         -7.9140    -4.0850    -1.5090 ha         1 XNL       0.132000
     41 H19         -8.2980    -2.9300     0.6300 ha         1 XNL       0.131000
     42 H20         -3.2520    -1.1340     3.9980 h4         1 XNL       0.017100
     43 H21         -7.1960    -0.5110     5.1540 h4         1 XNL       0.024100
     44 H22         -8.0550    -1.5920     3.1130 ha         1 XNL       0.139000
@<TRIPOS>BOND
     1     3     4 1
     2     3     2 1
     3     4     5 1
     4     2     1 1
     5     5     6 1
     6     1     6 1
     7     6     7 1
     8     7     8 1
     9     7     9 1
    10     9    10 1
    11    12    13 ar
    12    12    11 ar
    13    10    11 1
    14    10    18 1
    15    13    14 ar
    16    11    16 ar
    17    18    19 ar
    18    18    17 ar
    19    19    20 ar
    20    14    15 ar
    21    16    17 1
    22    16    15 ar
    23    17    22 ar
    24    20    21 ar
    25    22    21 ar
    26     1    23 1
    27     1    24 1
    28     2    25 1
    29     2    26 1
    30     3    27 1
    31     3    28 1
    32     4    29 1
    33     4    30 1
    34     5    31 1
    35     5    32 1
    36     6    33 1
    37     7    34 1
    38     8    35 1
    39     9    36 1
    40     9    37 1
    41    12    38 1
    42    13    39 1
    43    14    40 1
    44    15    41 1
    45    19    42 1
    46    21    43 1
    47    22    44 1
@<TRIPOS>SUBSTRUCTURE
     1 XNL         1 TEMP              0 ****  ****    0 ROOT
