@<TRIPOS>MOLECULE
XNM
   55    58     1     0     0
SMALL
bcc


@<TRIPOS>ATOM
      1 ClAA         0.0000     0.0000     0.0000 cl         1 XNM      -0.023400
      2 CAB          1.7360     0.0000     0.0000 ca         1 XNM      -0.020600
      3 CAC          2.4260     0.0000     1.2000 ca         1 XNM      -0.107500
      4 CAD          3.8060     0.0010     1.2050 ca         1 XNM      -0.060500
      5 CAE          2.4260    -0.0050    -1.2010 ca         1 XNM      -0.107500
      6 CAF          3.8060    -0.0050    -1.2060 ca         1 XNM      -0.060500
      7 CAG          4.5060     0.0010    -0.0010 cp         1 XNM      -0.167500
      8 CAH          5.9880     0.0010    -0.0000 cp         1 XNM       0.525800
      9 NAI          6.6640    -0.0050    -1.1480 nb         1 XNM      -0.685000
     10 CAJ          7.9880    -0.0040    -1.1510 ca         1 XNM       0.704900
     11 NAK          8.6600    -0.0100    -2.3620 nu         1 XNM      -0.285300
     12 CAL         10.0480     0.1040    -2.3880 ca         1 XNM       0.016600
     13 CAM         10.6990     0.8770    -1.4310 ca         1 XNM      -0.133000
     14 CAN         12.0710     0.9920    -1.4550 ca         1 XNM      -0.048000
     15 OAO         14.9180     0.3460    -1.4390 o          1 XNM      -0.649100
     16 CAP          6.6980     0.0130     1.2030 ca         1 XNM      -0.407600
     17 CAQ          8.0810     0.0130     1.1530 ca         1 XNM       0.492200
     18 NAR          8.6860     0.0020    -0.0240 nb         1 XNM      -0.684000
     19 CAS         10.7800    -0.5590    -3.3690 ca         1 XNM      -0.133000
     20 CAT         12.1520    -0.4490    -3.3970 ca         1 XNM      -0.048000
     21 CAU         12.8090     0.3310    -2.4410 ca         1 XNM      -0.168600
     22 CAV         14.2790     0.4520    -2.4690 c          1 XNM       0.614700
     23 NAW         14.9140     0.6800    -3.6360 n          1 XNM      -0.148800
     24 CAX         16.3690     0.8930    -3.6740 c3         1 XNM       0.033500
     25 CAY         16.6530     2.1770    -4.4600 c3         1 XNM       0.135300
     26 CAZ         14.1720     0.7180    -4.9050 c3         1 XNM       0.033500
     27 CBA         14.5380     2.0090    -5.6450 c3         1 XNM       0.135300
     28 NBB         16.0020     2.0980    -5.7740 n3         1 XNM      -0.525600
     29 CBC         16.3910     3.2320    -6.6230 c3         1 XNM       0.144800
     30 CBD         17.8090     3.0100    -7.1520 c3         1 XNM       0.222400
     31 OBE         17.8240     1.8670    -8.0110 oh         1 XNM      -0.577800
     32 HAC          1.8820    -0.0000     2.1370 ha         1 XNM       0.117000
     33 HAD          4.3450     0.0030     2.1450 ha         1 XNM       0.120000
     34 HAE          1.8810    -0.0090    -2.1370 ha         1 XNM       0.117000
     35 HAF          4.3440    -0.0070    -2.1460 ha         1 XNM       0.120000
     36 HNAK         8.1460    -0.0620    -3.2190 hn         1 XNM       0.293800
     37 HAM         10.1260     1.3890    -0.6680 ha         1 XNM       0.123500
     38 HAN         12.5770     1.5950    -0.7110 ha         1 XNM       0.117500
     39 HAP          6.1780     0.0230     2.1540 ha         1 XNM       0.133000
     40 HAQ          8.6620     0.0200     2.0670 h4         1 XNM      -0.014900
     41 HAS         10.2710    -1.1640    -4.1090 ha         1 XNM       0.123500
     42 HAT         12.7220    -0.9640    -4.1610 ha         1 XNM       0.117500
     43 HAX         16.7490     0.9930    -2.6650 h1         1 XNM       0.041950
     44 HAXA        16.8460     0.0530    -4.1670 h1         1 XNM       0.041950
     45 HAY         17.7220     2.2890    -4.5940 h1         1 XNM       0.015450
     46 HAYA        16.2610     3.0270    -3.9140 h1         1 XNM       0.015450
     47 HAZ         14.4450    -0.1370    -5.5110 h1         1 XNM       0.041950
     48 HAZA        13.1070     0.7040    -4.7030 h1         1 XNM       0.041950
     49 HBA         14.1730     2.8620    -5.0840 h1         1 XNM       0.015450
     50 HBAA        14.0890     2.0000    -6.6300 h1         1 XNM       0.015450
     51 HBC         16.3610     4.1450    -6.0420 h1         1 XNM       0.015200
     52 HBCA        15.7030     3.3110    -7.4560 h1         1 XNM       0.015200
     53 HBD         18.1280     3.8830    -7.7080 h1         1 XNM      -0.012800
     54 HBDA        18.4830     2.8460    -6.3210 h1         1 XNM      -0.012800
     55 HOBE        18.6080     1.8790    -8.5350 ho         1 XNM       0.383000
@<TRIPOS>BOND
     1     1     2 1   
     2     2     3 ar  
     3     2     5 ar  
     4     3     4 ar  
     5     3    32 1   
     6     4     7 ar  
     7     4    33 1   
     8     5     6 ar  
     9     5    34 1   
    10     6     7 ar  
    11     6    35 1   
    12     7     8 1   
    13     8     9 ar  
    14     8    16 ar  
    15     9    10 ar  
    16    10    11 1   
    17    10    18 ar  
    18    11    12 1   
    19    11    36 1   
    20    12    13 ar  
    21    12    19 ar  
    22    13    14 ar  
    23    13    37 1   
    24    14    21 ar  
    25    14    38 1   
    26    15    22 2   
    27    16    17 ar  
    28    16    39 1   
    29    17    18 ar  
    30    17    40 1   
    31    19    20 ar  
    32    19    41 1   
    33    20    21 ar  
    34    20    42 1   
    35    21    22 1   
    36    22    23 1   
    37    23    24 1   
    38    23    26 1   
    39    24    25 1   
    40    24    43 1   
    41    24    44 1   
    42    25    28 1   
    43    25    45 1   
    44    25    46 1   
    45    26    27 1   
    46    26    47 1   
    47    26    48 1   
    48    27    28 1   
    49    27    49 1   
    50    27    50 1   
    51    28    29 1   
    52    29    30 1   
    53    29    51 1   
    54    29    52 1   
    55    30    31 1   
    56    30    53 1   
    57    30    54 1   
    58    31    55 1   
@<TRIPOS>SUBSTRUCTURE
     1 XNM         1 TEMP              0 ****  ****    0 ROOT
