@<TRIPOS>MOLECULE
molecule
   57    62     1     0     0
SMALL
bcc


@<TRIPOS>ATOM
      1 C01          0.0000     0.0000     0.0000 c3         1 XNN      -0.011000
      2 S02          1.8150     0.0000     0.0000 ss         1 XNN      -0.268000
      3 C03          2.2110     0.0000     1.7170 ca         1 XNN       0.002900
      4 C04          1.1970    -0.0000     2.6650 ca         1 XNN      -0.130000
      5 C05          1.5100    -0.0000     4.0120 ca         1 XNN      -0.133000
      6 C06          2.8320    -0.0010     4.4180 ca         1 XNN      -0.121000
      7 C07          3.8480    -0.0010     3.4800 ca         1 XNN      -0.132000
      8 C08          3.5450    -0.0060     2.1280 ca         1 XNN       0.165600
      9 N09          4.5720    -0.0070     1.1770 nu         1 XNN      -0.724300
     10 C10          5.8170    -0.5010     1.5070 ca         1 XNN       0.692900
     11 N11          6.0350    -1.0920     2.6740 nb         1 XNN      -0.840000
     12 C12          7.2340    -1.5690     2.9950 ca         1 XNN       0.858900
     13 N13          8.2810    -1.4940     2.1970 nb         1 XNN      -0.758000
     14 C14          8.1880    -0.9210     0.9950 ca         1 XNN       0.205000
     15 C15          9.2820    -0.8170     0.1040 ca         1 XNN       0.684900
     16 N16          9.0800    -0.2300    -1.0670 nb         1 XNN      -0.817000
     17 C17          7.8940     0.2500    -1.4060 ca         1 XNN       0.713900
     18 N18          6.8460     0.1810    -0.6180 nb         1 XNN      -0.770000
     19 C19          6.9420    -0.3970     0.5820 ca         1 XNN       0.190000
     20 N20         10.5250    -1.3140     0.4440 nu         1 XNN      -0.875900
     21 C21         11.6440    -1.1960    -0.4950 c3         1 XNN       0.270800
     22 C22         12.8960    -1.8200     0.1230 cx         1 XNN      -0.165700
     23 C23         14.2070    -1.6960    -0.6570 cx         1 XNN      -0.130400
     24 C24         13.4910    -3.0470    -0.5740 cx         1 XNN      -0.130400
     25 N25          7.3900    -2.1740     4.2300 nn         1 XNN      -0.628300
     26 C26          7.3860    -3.6460     4.1030 cy         1 XNN       0.147800
     27 C27          6.5090    -3.6850     5.3460 cy         1 XNN      -0.138000
     28 C28          7.0740    -3.9960     6.7310 cy         1 XNN       0.131800
     29 N29          6.4630    -5.3350     6.5580 n6         1 XNN      -0.757200
     30 C30          5.4860    -4.7950     5.5830 cy         1 XNN       0.131800
     31 C31          6.0970    -2.2780     4.9360 cy         1 XNN       0.147800
     32 H01         -0.3610    -0.8840     0.5110 h1         1 XNN       0.066033
     33 H01A        -0.3610     0.8850     0.5110 h1         1 XNN       0.066033
     34 H01B        -0.3610    -0.0000    -1.0210 h1         1 XNN       0.066033
     35 H04          0.1610     0.0000     2.3500 ha         1 XNN       0.134000
     36 H05          0.7180    -0.0010     4.7500 ha         1 XNN       0.131000
     37 H06          3.0720     0.0010     5.4750 ha         1 XNN       0.132000
     38 H07          4.8830    -0.0030     3.8030 ha         1 XNN       0.177000
     39 HN09         4.4120     0.3810     0.2680 hn         1 XNN       0.488800
     40 H17          7.7830     0.7210    -2.3750 h5         1 XNN       0.058100
     41 HN20        10.6660    -1.7390     1.3400 hn         1 XNN       0.473800
     42 H21         11.8290    -0.1500    -0.7060 h1         1 XNN       0.057200
     43 H21A        11.3990    -1.7130    -1.4150 h1         1 XNN       0.057200
     44 H22         13.0070    -1.8130     1.2010 hc         1 XNN       0.086700
     45 H23         15.1020    -1.6030    -0.0550 hc         1 XNN       0.077200
     46 H23A        14.1360    -1.1870    -1.6110 hc         1 XNN       0.077200
     47 H24         13.9490    -3.7790     0.0800 hc         1 XNN       0.077200
     48 H24A        12.9830    -3.3640    -1.4770 hc         1 XNN       0.077200
     49 H26          6.8740    -3.9920     3.2130 h1         1 XNN       0.076200
     50 H26A         8.3630    -4.0860     4.2600 h1         1 XNN       0.076200
     51 H28          8.1570    -4.0200     6.7540 h1         1 XNN       0.061450
     52 H28A         6.6130    -3.4150     7.5200 h1         1 XNN       0.061450
     53 HN29         5.9870    -5.5950     7.3990 hn         1 XNN       0.327800
     54 H30          5.3450    -5.4360     4.7210 h1         1 XNN       0.061450
     55 H30A         4.5730    -4.4420     6.0460 h1         1 XNN       0.061450
     56 H31          5.2470    -2.2650     4.2650 h1         1 XNN       0.076200
     57 H31A         6.0190    -1.5990     5.7770 h1         1 XNN       0.076200
@<TRIPOS>BOND
     1     2     1 1
     2     1    32 1
     3     1    33 1
     4     1    34 1
     5     3     2 1
     6     8     3 ar
     7     3     4 ar
     8     5     4 ar
     9     4    35 1
    10     6     5 ar
    11     5    36 1
    12     7     6 ar
    13     6    37 1
    14     7     8 ar
    15     7    38 1
    16     9     8 1
    17    10     9 1
    18     9    39 1
    19    11    10 ar
    20    19    10 ar
    21    12    11 ar
    22    25    12 1
    23    13    12 ar
    24    13    14 ar
    25    15    14 ar
    26    14    19 ar
    27    20    15 1
    28    15    16 ar
    29    16    17 ar
    30    17    18 ar
    31    17    40 1
    32    19    18 ar
    33    21    20 1
    34    20    41 1
    35    21    22 1
    36    21    42 1
    37    21    43 1
    38    23    22 1
    39    24    22 1
    40    22    44 1
    41    23    24 1
    42    23    45 1
    43    23    46 1
    44    24    47 1
    45    24    48 1
    46    26    25 1
    47    25    31 1
    48    27    26 1
    49    26    49 1
    50    26    50 1
    51    28    27 1
    52    30    27 1
    53    27    31 1
    54    28    29 1
    55    28    51 1
    56    28    52 1
    57    29    30 1
    58    29    53 1
    59    30    54 1
    60    30    55 1
    61    31    56 1
    62    31    57 1
@<TRIPOS>SUBSTRUCTURE
     1 XNN         1 TEMP              0 ****  ****    0 ROOT
