@<TRIPOS>MOLECULE
XNN
   57    62     1     0     0
SMALL
bcc


@<TRIPOS>ATOM
      1 C01          0.0000     0.0000     0.0000 c3         1 XNN       0.120000
      2 S02          1.8150     0.0000     0.0000 ss         1 XNN      -0.342000
      3 C03          2.2110     0.0000     1.7170 ca         1 XNN       0.016900
      4 C04          1.1970    -0.0000     2.6650 ca         1 XNN      -0.106000
      5 C05          1.5100    -0.0000     4.0120 ca         1 XNN      -0.105000
      6 C06          2.8320    -0.0010     4.4180 ca         1 XNN      -0.081000
      7 C07          3.8480    -0.0010     3.4800 ca         1 XNN      -0.128000
      8 C08          3.5450    -0.0060     2.1280 ca         1 XNN       0.018600
      9 N09          4.5720    -0.0070     1.1770 nu         1 XNN      -0.236300
     10 C10          5.8170    -0.5010     1.5070 ca         1 XNN       0.479900
     11 N11          6.0350    -1.0920     2.6740 nb         1 XNN      -0.734000
     12 C12          7.2340    -1.5690     2.9950 ca         1 XNN       0.724900
     13 N13          8.2810    -1.4940     2.1970 nb         1 XNN      -0.654000
     14 C14          8.1880    -0.9210     0.9950 ca         1 XNN       0.167000
     15 C15          9.2820    -0.8170     0.1040 ca         1 XNN       0.485900
     16 N16          9.0800    -0.2300    -1.0670 nb         1 XNN      -0.721000
     17 C17          7.8940     0.2500    -1.4060 ca         1 XNN       0.672900
     18 N18          6.8460     0.1810    -0.6180 nb         1 XNN      -0.673000
     19 C19          6.9420    -0.3970     0.5820 ca         1 XNN       0.160000
     20 N20         10.5250    -1.3140     0.4440 nu         1 XNN      -0.448900
     21 C21         11.6440    -1.1960    -0.4950 c3         1 XNN       0.196800
     22 C22         12.8960    -1.8200     0.1230 cx         1 XNN      -0.142700
     23 C23         14.2070    -1.6960    -0.6570 cx         1 XNN      -0.070400
     24 C24         13.4910    -3.0470    -0.5740 cx         1 XNN      -0.070400
     25 N25          7.3900    -2.1740     4.2300 nn         1 XNN      -0.479300
     26 C26          7.3860    -3.6460     4.1030 cy         1 XNN       0.152300
     27 C27          6.5090    -3.6850     5.3460 cy         1 XNN      -0.149000
     28 C28          7.0740    -3.9960     6.7310 cy         1 XNN       0.152800
     29 N29          6.4630    -5.3350     6.5580 n6         1 XNN      -0.580200
     30 C30          5.4860    -4.7950     5.5830 cy         1 XNN       0.152800
     31 C31          6.0970    -2.2780     4.9360 cy         1 XNN       0.152300
     32 H01         -0.3610    -0.8840     0.5110 h1         1 XNN       0.037700
     33 H01A        -0.3610     0.8850     0.5110 h1         1 XNN       0.037700
     34 H01B        -0.3610    -0.0000    -1.0210 h1         1 XNN       0.037700
     35 H04          0.1610     0.0000     2.3500 ha         1 XNN       0.114000
     36 H05          0.7180    -0.0010     4.7500 ha         1 XNN       0.104000
     37 H06          3.0720     0.0010     5.4750 ha         1 XNN       0.104000
     38 H07          4.8830    -0.0030     3.8030 ha         1 XNN       0.160000
     39 HN09         4.4120     0.3810     0.2680 hn         1 XNN       0.321800
     40 H17          7.7830     0.7210    -2.3750 h5         1 XNN      -0.003900
     41 HN20        10.6660    -1.7390     1.3400 hn         1 XNN       0.317800
     42 H21         11.8290    -0.1500    -0.7060 h1         1 XNN       0.030200
     43 H21A        11.3990    -1.7130    -1.4150 h1         1 XNN       0.030200
     44 H22         13.0070    -1.8130     1.2010 hc         1 XNN       0.064700
     45 H23         15.1020    -1.6030    -0.0550 hc         1 XNN       0.047450
     46 H23A        14.1360    -1.1870    -1.6110 hc         1 XNN       0.047450
     47 H24         13.9490    -3.7790     0.0800 hc         1 XNN       0.047450
     48 H24A        12.9830    -3.3640    -1.4770 hc         1 XNN       0.047450
     49 H26          6.8740    -3.9920     3.2130 h1         1 XNN       0.042950
     50 H26A         8.3630    -4.0860     4.2600 h1         1 XNN       0.042950
     51 H28          8.1570    -4.0200     6.7540 h1         1 XNN       0.027700
     52 H28A         6.6130    -3.4150     7.5200 h1         1 XNN       0.027700
     53 HN29         5.9870    -5.5950     7.3990 hn         1 XNN       0.243800
     54 H30          5.3450    -5.4360     4.7210 h1         1 XNN       0.027700
     55 H30A         4.5730    -4.4420     6.0460 h1         1 XNN       0.027700
     56 H31          5.2470    -2.2650     4.2650 h1         1 XNN       0.042950
     57 H31A         6.0190    -1.5990     5.7770 h1         1 XNN       0.042950
@<TRIPOS>BOND
     1     1     2 1   
     2     1    32 1   
     3     1    33 1   
     4     1    34 1   
     5     2     3 1   
     6     3     4 ar  
     7     3     8 ar  
     8     4     5 ar  
     9     4    35 1   
    10     5     6 ar  
    11     5    36 1   
    12     6     7 ar  
    13     6    37 1   
    14     7     8 ar  
    15     7    38 1   
    16     8     9 1   
    17     9    10 1   
    18     9    39 1   
    19    10    11 ar  
    20    10    19 ar  
    21    11    12 ar  
    22    12    13 ar  
    23    12    25 1   
    24    13    14 ar  
    25    14    15 ar  
    26    14    19 ar  
    27    15    16 ar  
    28    15    20 1   
    29    16    17 ar  
    30    17    18 ar  
    31    17    40 1   
    32    18    19 ar  
    33    20    21 1   
    34    20    41 1   
    35    21    22 1   
    36    21    42 1   
    37    21    43 1   
    38    22    23 1   
    39    22    24 1   
    40    22    44 1   
    41    23    24 1   
    42    23    45 1   
    43    23    46 1   
    44    24    47 1   
    45    24    48 1   
    46    25    26 1   
    47    25    31 1   
    48    26    27 1   
    49    26    49 1   
    50    26    50 1   
    51    27    28 1   
    52    27    30 1   
    53    27    31 1   
    54    28    29 1   
    55    28    51 1   
    56    28    52 1   
    57    29    30 1   
    58    29    53 1   
    59    30    54 1   
    60    30    55 1   
    61    31    56 1   
    62    31    57 1   
@<TRIPOS>SUBSTRUCTURE
     1 XNN         1 TEMP              0 ****  ****    0 ROOT
