@<TRIPOS>MOLECULE
XNS
   54    54     1     0     0
SMALL
bcc


@<TRIPOS>ATOM
      1 C14         0.0190    0.0970   -0.0980 c3        1 XNS     -0.127400
      2 O7          2.2410    0.8980   -0.8160 o         1 XNS     -0.541000
      3 C15         1.5080    0.2360   -0.0780 c         1 XNS      0.629100
      4 O8          2.0930   -0.4790    0.9340 os        1 XNS     -0.442900
      5 C16         3.5120   -0.3880    1.0500 c3        1 XNS      0.125700
      6 C13        -0.5080    0.0850   -1.5180 c3        1 XNS     -0.079400
      7 C12        -2.0210    0.0910   -1.5290 c3        1 XNS     -0.078400
      8 C11        -2.5540    0.0580   -2.9450 c3        1 XNS     -0.079400
      9 C10        -4.0680    0.0750   -2.9610 c3        1 XNS     -0.078400
     10 C9         -4.6010    0.0370   -4.3780 c3        1 XNS     -0.078400
     11 C8         -6.1130    0.0590   -4.3890 c3        1 XNS     -0.083400
     12 C7         -6.6280    0.0150   -5.8160 c3        1 XNS      0.132400
     13 O1         -8.0580    0.0440   -5.7280 os        1 XNS     -0.452600
     14 C1         -8.7030   -0.0260   -6.9840 c3        1 XNS      0.304900
     15 C2        -10.2050    0.2120   -6.7270 c3        1 XNS      0.094100
     16 O2        -10.8880    0.4320   -7.9510 oh        1 XNS     -0.601800
     17 C3        -10.8570   -1.0120   -6.0720 c3        1 XNS      0.117100
     18 O3        -12.2630   -0.8930   -6.0130 oh        1 XNS     -0.596800
     19 C4        -10.4650   -2.2940   -6.8260 c3        1 XNS      0.086100
     20 O4        -10.9760   -3.4430   -6.1730 oh        1 XNS     -0.596800
     21 C5         -8.9340   -2.4090   -6.8560 c3        1 XNS      0.146100
     22 O5         -8.3950   -1.2790   -7.5520 os        1 XNS     -0.429600
     23 C6         -8.4860   -3.6430   -7.6390 c3        1 XNS      0.134400
     24 O6         -7.1900   -3.9810   -7.1700 oh        1 XNS     -0.600800
     25 H141       -0.2790   -0.8410    0.4420 hc        1 XNS      0.078700
     26 H142       -0.4060    0.9690    0.4690 hc        1 XNS      0.078700
     27 H131       -0.1140    0.9800   -2.0700 hc        1 XNS      0.057700
     28 H132       -0.1280   -0.8260   -2.0520 hc        1 XNS      0.057700
     29 H161        3.7490   -1.0400    1.9260 h1        1 XNS      0.050367
     30 H162        3.8120    0.6720    1.2350 h1        1 XNS      0.050367
     31 H163        3.9960   -0.7640    0.1160 h1        1 XNS      0.050367
     32 H121       -2.3980    1.0100   -1.0070 hc        1 XNS      0.041700
     33 H122       -2.4070   -0.7950   -0.9600 hc        1 XNS      0.041700
     34 H111       -2.1610    0.9400   -3.5160 hc        1 XNS      0.042700
     35 H112       -2.1830   -0.8650   -3.4660 hc        1 XNS      0.042700
     36 H101       -4.4600   -0.8060   -2.3880 hc        1 XNS      0.041700
     37 H102       -4.4390    0.9990   -2.4430 hc        1 XNS      0.041700
     38 H91C       -4.2050    0.9170   -4.9520 hc        1 XNS      0.042700
     39 H92C       -4.2330   -0.8890   -4.8940 hc        1 XNS      0.042700
     40 H81C       -6.5180   -0.8200   -3.8230 hc        1 XNS      0.054200
     41 H82C       -6.4920    0.9840   -3.8820 hc        1 XNS      0.054200
     42 H71C       -6.2790    0.9060   -6.4020 h1        1 XNS      0.042200
     43 H72C       -6.3080   -0.9250   -6.3380 h1        1 XNS      0.042200
     44 H1         -8.2860    0.7220   -7.7190 h2        1 XNS      0.071700
     45 H2        -10.3230    1.1070   -6.0550 h1        1 XNS      0.070700
     46 HA        -10.5130    1.2270   -8.3480 ho        1 XNS      0.414000
     47 H3        -10.5240   -1.0780   -4.9970 h1        1 XNS      0.104700
     48 HB        -12.5750   -0.6750   -6.9030 ho        1 XNS      0.421000
     49 H4        -10.8720   -2.2510   -7.8760 h1        1 XNS      0.059700
     50 HC        -11.8720   -3.2210   -5.8820 ho        1 XNS      0.421000
     51 H5         -8.5200   -2.4360   -5.8110 h1        1 XNS      0.085700
     52 H61C       -8.4570   -3.4200   -8.7380 h1        1 XNS      0.046700
     53 H62C       -9.2010   -4.4850   -7.4330 h1        1 XNS      0.046700
     54 H6         -6.8930   -4.7270   -7.7040 ho        1 XNS      0.401000
@<TRIPOS>BOND
     1    1    3 1   
     2    1    6 1   
     3    1   25 1   
     4    1   26 1   
     5    2    3 2   
     6    3    4 1   
     7    4    5 1   
     8    5   29 1   
     9    5   30 1   
    10    5   31 1   
    11    6    7 1   
    12    6   27 1   
    13    6   28 1   
    14    7    8 1   
    15    7   32 1   
    16    7   33 1   
    17    8    9 1   
    18    8   34 1   
    19    8   35 1   
    20    9   10 1   
    21    9   36 1   
    22    9   37 1   
    23   10   11 1   
    24   10   38 1   
    25   10   39 1   
    26   11   12 1   
    27   11   40 1   
    28   11   41 1   
    29   12   13 1   
    30   12   42 1   
    31   12   43 1   
    32   13   14 1   
    33   14   15 1   
    34   14   22 1   
    35   14   44 1   
    36   15   16 1   
    37   15   17 1   
    38   15   45 1   
    39   16   46 1   
    40   17   18 1   
    41   17   19 1   
    42   17   47 1   
    43   18   48 1   
    44   19   20 1   
    45   19   21 1   
    46   19   49 1   
    47   20   50 1   
    48   21   22 1   
    49   21   23 1   
    50   21   51 1   
    51   23   24 1   
    52   23   52 1   
    53   23   53 1   
    54   24   54 1   
@<TRIPOS>SUBSTRUCTURE
     1 XNS         1 TEMP              0 ****  ****    0 ROOT
