@<TRIPOS>MOLECULE
molecule
   54    54     1     0     0
SMALL
bcc


@<TRIPOS>ATOM
      1 C14          0.0000     0.0000     0.0000 c3         1 XNS      -0.126400
      2 O7           2.1110    -0.0000    -1.0460 o          1 XNS      -0.550000
      3 C15          1.5070     0.0000     0.0000 c          1 XNS       0.628100
      4 O8           2.1780     0.0000     1.1630 os         1 XNS      -0.432900
      5 C16          3.6280    -0.0010     1.0860 c3         1 XNS       0.138700
      6 C13         -0.5100    -0.0000    -1.4430 c3         1 XNS      -0.072400
      7 C12         -2.0400     0.0010    -1.4420 c3         1 XNS      -0.083400
      8 C11         -2.5500     0.0010    -2.8840 c3         1 XNS      -0.080400
      9 C10         -4.0800     0.0000    -2.8850 c3         1 XNS      -0.080400
     10 C9          -4.5890     0.0010    -4.3280 c3         1 XNS      -0.080400
     11 C8          -6.1200     0.0020    -4.3270 c3         1 XNS      -0.082400
     12 C7          -6.6300     0.0020    -5.7700 c3         1 XNS       0.137400
     13 O1          -8.0590     0.0010    -5.7700 os         1 XNS      -0.457600
     14 C1          -8.6400     0.0010    -7.0750 c3         1 XNS       0.320900
     15 C2         -10.1460     0.2520    -6.9630 c3         1 XNS       0.114100
     16 O2         -10.7200     0.3050    -8.2710 oh         1 XNS      -0.577800
     17 C3         -10.7880    -0.8890    -6.1690 c3         1 XNS       0.130100
     18 O3         -12.2040    -0.7020    -6.1220 oh         1 XNS      -0.598800
     19 C4         -10.4700    -2.2190    -6.8590 c3         1 XNS       0.116100
     20 O4         -11.0020    -3.2970    -6.0870 oh         1 XNS      -0.606800
     21 C5          -8.9520    -2.3750    -6.9750 c3         1 XNS       0.147100
     22 O5          -8.4140    -1.2640    -7.6980 os         1 XNS      -0.410600
     23 C6          -8.6260    -3.6720    -7.7160 c3         1 XNS       0.150400
     24 O6          -7.2120    -3.8760    -7.7230 oh         1 XNS      -0.604800
     25 H141        -0.3610     0.8850     0.5110 hc         1 XNS       0.071200
     26 H142        -0.3610    -0.8840     0.5110 hc         1 XNS       0.071200
     27 H131        -0.1490     0.8840    -1.9540 hc         1 XNS       0.058700
     28 H132        -0.1500    -0.8850    -1.9530 hc         1 XNS       0.058700
     29 H161         4.0420    -0.0000     2.0870 h1         1 XNS       0.048700
     30 H162         3.9620     0.8840     0.5570 h1         1 XNS       0.048700
     31 H163         3.9610    -0.8850     0.5580 h1         1 XNS       0.048700
     32 H121        -2.4000     0.8860    -0.9310 hc         1 XNS       0.041200
     33 H122        -2.4010    -0.8830    -0.9310 hc         1 XNS       0.041200
     34 H111        -2.1890    -0.8840    -3.3950 hc         1 XNS       0.044700
     35 H112        -2.1890     0.8850    -3.3950 hc         1 XNS       0.044700
     36 H101        -4.4420    -0.8840    -2.3740 hc         1 XNS       0.042200
     37 H102        -4.4420     0.8850    -2.3740 hc         1 XNS       0.042200
     38 H91C        -4.2280     0.8850    -4.8380 hc         1 XNS       0.044700
     39 H92C        -4.2290    -0.8840    -4.8380 hc         1 XNS       0.044700
     40 H81C        -6.4810    -0.8830    -3.8160 hc         1 XNS       0.051200
     41 H82C        -6.4810     0.8860    -3.8170 hc         1 XNS       0.051200
     42 H71C        -6.2690    -0.8830    -6.2810 h1         1 XNS       0.037200
     43 H72C        -6.2690     0.8860    -6.2810 h1         1 XNS       0.037200
     44 H1          -8.1900     0.7830    -7.6760 h2         1 XNS       0.077700
     45 H2         -10.3180     1.1900    -6.4490 h1         1 XNS       0.050700
     46 HA         -10.9730     1.1920    -8.4670 ho         1 XNS       0.405000
     47 H3         -10.3860    -0.8990    -5.1630 h1         1 XNS       0.066700
     48 HB         -12.4630    -0.4760    -5.2440 ho         1 XNS       0.404000
     49 H4         -10.9090    -2.2250    -7.8490 h1         1 XNS       0.070700
     50 HC         -11.7870    -3.6200    -6.4980 ho         1 XNS       0.412000
     51 H5          -8.5170    -2.4020    -5.9830 h1         1 XNS       0.071700
     52 H61C        -8.9860    -3.6050    -8.7360 h1         1 XNS       0.035700
     53 H62C        -9.1090    -4.5030    -7.2170 h1         1 XNS       0.035700
     54 H6          -7.0140    -4.6900    -8.1570 ho         1 XNS       0.402000
@<TRIPOS>BOND
     1     1     3 1
     2     1     6 1
     3     2     3 2
     4     3     4 1
     5     4     5 1
     6     6     7 1
     7     7     8 1
     8     8     9 1
     9     9    10 1
    10    10    11 1
    11    11    12 1
    12    12    13 1
    13    13    14 1
    14    14    15 1
    15    14    22 1
    16    15    16 1
    17    15    17 1
    18    17    18 1
    19    17    19 1
    20    19    20 1
    21    19    21 1
    22    21    22 1
    23    21    23 1
    24    23    24 1
    25     1    25 1
    26     1    26 1
    27     6    27 1
    28     6    28 1
    29     5    29 1
    30     5    30 1
    31     5    31 1
    32     7    32 1
    33     7    33 1
    34     8    34 1
    35     8    35 1
    36     9    36 1
    37     9    37 1
    38    10    38 1
    39    10    39 1
    40    11    40 1
    41    11    41 1
    42    12    42 1
    43    12    43 1
    44    14    44 1
    45    15    45 1
    46    16    46 1
    47    17    47 1
    48    18    48 1
    49    19    49 1
    50    20    50 1
    51    21    51 1
    52    23    52 1
    53    23    53 1
    54    24    54 1
@<TRIPOS>SUBSTRUCTURE
     1 XNS         1 TEMP              0 ****  ****    0 ROOT
