@<TRIPOS>MOLECULE
XNV
   71    73     1     0     0
SMALL
bcc


@<TRIPOS>ATOM
      1 C01         1.6350   -3.8120    0.9170 c3        1 XNV     -0.110100
      2 C02         2.3170   -3.2900    2.1560 c3        1 XNV      0.143400
      3 O03         3.3010   -2.3320    1.6860 os        1 XNV     -0.395900
      4 C04         4.0620   -1.7140    2.6060 c         1 XNV      0.656100
      5 C05         5.0180   -0.7190    2.0180 c3        1 XNV     -0.157400
      6 C06         6.3430   -0.6310    2.7430 c3        1 XNV     -0.100400
      7 C07         6.3140    0.2380    4.0120 c3        1 XNV      0.131500
      8 N08         5.8270   -0.5450    5.2040 n4        1 XNV     -0.679800
      9 C09         4.6670    0.0510    5.9280 c         1 XNV      0.543100
     10 C10         3.8200   -0.9490    6.7520 c3        1 XNV      0.037700
     11 N11         4.3960   -1.1240    8.0790 n         1 XNV     -0.314000
     12 C12         5.4870   -2.0150    8.2070 c         1 XNV      0.717700
     13 C13         5.9780   -2.2850    9.5650 cc        1 XNV     -0.210200
     14 N14         7.0920   -3.2140    9.6650 n4        1 XNV     -0.519600
     15 C15         6.8250   -4.4460   10.5260 c         1 XNV      0.497600
     16 C16         7.8940   -5.4330   10.5040 cc        1 XNV      0.194800
     17 N17         9.0720   -5.3320    9.8220 nd        1 XNV     -0.319300
     18 O18         9.7750   -6.3950   10.0470 os        1 XNV     -0.052100
     19 C19         9.0810   -7.2890   10.9190 cd        1 XNV      0.326000
     20 C20         9.7690   -8.5310   11.2560 c3        1 XNV     -0.166400
     21 C21         7.8660   -6.6950   11.2290 cc        1 XNV     -0.298600
     22 O22         5.7790   -4.4890   11.1490 o         1 XNV     -0.390100
     23 C23         5.4040   -1.6730   10.6640 cd        1 XNV      0.080000
     24 C24         4.3380   -0.7680   10.4660 cd        1 XNV     -0.232000
     25 C25         3.8580   -0.5220    9.1960 cc        1 XNV      0.088600
     26 O26         6.0020   -2.5180    7.1800 o         1 XNV     -0.687500
     27 C27         2.3620   -0.4480    6.6990 c3        1 XNV      0.007700
     28 C28         1.4730   -1.2770    7.4480 c1        1 XNV     -0.235100
     29 C29         0.6720   -1.9500    8.0300 c1        1 XNV     -0.034500
     30 O30         4.4500    1.2500    5.8370 o         1 XNV     -0.422100
     31 C31         7.7080    0.8360    4.2540 c3        1 XNV     -0.093400
     32 C32         7.7450    1.8580    5.3710 c3        1 XNV     -0.160700
     33 C33         8.7580    2.9870    5.1120 c3        1 XNV     -0.093400
     34 C34         9.6470    3.0580    6.3740 c3        1 XNV      0.076000
     35 N35         9.2400    1.9560    7.2270 n         1 XNV     -0.529900
     36 C36         8.1920    1.2500    6.7110 c         1 XNV      0.701500
     37 O37         7.6580    0.2540    7.2590 o         1 XNV     -0.746500
     38 O38         3.9020   -1.9870    3.8110 o         1 XNV     -0.657000
     39 H10         3.8430   -1.9650    6.2310 h1        1 XNV      0.151700
     40 H20         9.1450   -9.4090   10.9440 hc        1 XNV      0.098033
     41 H20A       10.7620   -8.5940   10.7420 hc        1 XNV      0.098033
     42 H20B        9.9330   -8.5860   12.3640 hc        1 XNV      0.098033
     43 H01         1.1420   -2.9820    0.3560 hc        1 XNV      0.066700
     44 H21         7.0610   -7.0610   11.8630 ha        1 XNV      0.216000
     45 H31         8.4540    0.0190    4.4420 hc        1 XNV      0.091200
     46 H01A        0.8600   -4.5560    1.2220 hc        1 XNV      0.066700
     47 H31A        8.0060    1.3430    3.2930 hc        1 XNV      0.091200
     48 H01B        2.3700   -4.3080    0.2390 hc        1 XNV      0.066700
     49 H02         2.8550   -4.0940    2.7210 h1        1 XNV      0.057200
     50 H32         6.7210    2.3000    5.5270 hc        1 XNV      0.097700
     51 H02A        1.6100   -2.7550    2.8410 h1        1 XNV      0.057200
     52 H23         5.7480   -1.8790   11.6940 ha        1 XNV      0.182000
     53 H33         9.3880    2.7770    4.2130 hc        1 XNV      0.081200
     54 H33A        8.2340    3.9600    4.9490 hc        1 XNV      0.081200
     55 HN14        7.3370   -3.5290    8.7080 hn        1 XNV      0.483800
     56 H24         3.8800   -0.2620   11.3320 ha        1 XNV      0.203000
     57 H34         9.5030    4.0350    6.9130 h1        1 XNV      0.078200
     58 H34A       10.7350    2.9550    6.1090 h1        1 XNV      0.078200
     59 H05         4.4980    0.2780    1.9980 hc        1 XNV      0.112700
     60 H25         3.0040    0.1710    9.0330 h4        1 XNV      0.206000
     61 HN35        9.6770    1.7700    8.0950 hn        1 XNV      0.352500
     62 H05A        5.2110   -1.0070    0.9450 hc        1 XNV      0.112700
     63 H06         7.0800   -0.1600    2.0340 hc        1 XNV      0.092200
     64 H07         5.5870    1.0930    3.8500 hx        1 XNV      0.116700
     65 H27         2.0620   -0.4640    5.6090 hc        1 XNV      0.100700
     66 H27A        2.2980    0.6230    7.0430 hc        1 XNV      0.100700
     67 HN08        5.5480   -1.4990    4.9010 hn        1 XNV      0.498800
     68 H29        -0.0430   -2.5450    8.5480 ha        1 XNV      0.192500
     69 H06A        6.7310   -1.6610    2.9690 hc        1 XNV      0.092200
     70 H082        6.5980   -0.6560    5.8990 hn        1 XNV      0.498800
     71 H142        7.9060   -2.7180   10.0550 hn        1 XNV      0.483800
@<TRIPOS>BOND
     1    1    2 1   
     2    1   43 1   
     3    1   46 1   
     4    1   48 1   
     5    2    3 1   
     6    2   49 1   
     7    2   51 1   
     8    3    4 1   
     9    4    5 1   
    10    4   38 2   
    11    5    6 1   
    12    5   59 1   
    13    5   62 1   
    14    6    7 1   
    15    6   63 1   
    16    6   69 1   
    17    7    8 1   
    18    7   31 1   
    19    7   64 1   
    20    8    9 1   
    21    8   67 1   
    22    8   70 1   
    23    9   10 1   
    24    9   30 2   
    25   10   11 1   
    26   10   27 1   
    27   10   39 1   
    28   11   12 1   
    29   11   25 1   
    30   12   13 1   
    31   12   26 2   
    32   13   14 1   
    33   13   23 2   
    34   14   15 1   
    35   14   55 1   
    36   14   71 1   
    37   15   16 1   
    38   15   22 2   
    39   16   17 2   
    40   16   21 1   
    41   17   18 1   
    42   18   19 1   
    43   19   20 1   
    44   19   21 2   
    45   20   40 1   
    46   20   41 1   
    47   20   42 1   
    48   21   44 1   
    49   23   24 1   
    50   23   52 1   
    51   24   25 2   
    52   24   56 1   
    53   25   60 1   
    54   27   28 1   
    55   27   65 1   
    56   27   66 1   
    57   28   29 3   
    58   29   68 1   
    59   31   32 1   
    60   31   45 1   
    61   31   47 1   
    62   32   33 1   
    63   32   36 1   
    64   32   50 1   
    65   33   34 1   
    66   33   53 1   
    67   33   54 1   
    68   34   35 1   
    69   34   57 1   
    70   34   58 1   
    71   35   36 1   
    72   35   61 1   
    73   36   37 2   
@<TRIPOS>SUBSTRUCTURE
     1 XNV         1 TEMP              0 ****  ****    0 ROOT
