@<TRIPOS>MOLECULE
XNW
   39    40     1     0     0
SMALL
bcc


@<TRIPOS>ATOM
      1 CAA         0.7250   -0.3980   -0.6270 c3        1 XNW      0.119700
      2 OAN         2.0640   -0.1930   -0.2060 os        1 XNW     -0.336900
      3 CAR         2.2580   -0.0910    1.1650 ca        1 XNW      0.097100
      4 CAK         3.5910    0.1340    1.5580 ca        1 XNW     -0.187000
      5 CAI         3.8910    0.2480    2.9090 ca        1 XNW     -0.098000
      6 CAJ         1.2400   -0.1980    2.1160 ca        1 XNW     -0.187000
      7 CAH         1.5610   -0.0800    3.4700 ca        1 XNW     -0.098000
      8 CAQ         2.8770    0.1400    3.8770 ca        1 XNW     -0.098300
      9 CAL         3.2250    0.2350    5.3220 c3        1 XNW     -0.028100
     10 CAU         3.8130    1.5930    5.6910 c3        1 XNW     -0.152700
     11 CAP         2.8270    2.4860    6.3840 c         1 XNW      0.567100
     12 OAC         1.6600    2.1950    6.6690 o         1 XNW     -0.560100
     13 CAT         3.3830    3.8500    6.7610 c3        1 XNW      0.003100
     14 OAF         2.4080    4.6850    7.3530 oh        1 XNW     -0.590800
     15 CAS         4.5960    3.6420    7.6880 c3        1 XNW      0.120100
     16 OAE         5.1330    4.8840    8.1080 oh        1 XNW     -0.595800
     17 CAM         5.6390    2.7940    6.9740 c3        1 XNW     -0.108400
     18 CAV         5.0910    1.4350    6.5450 c3        1 XNW      0.028800
     19 CAO         6.1760    0.7210    5.6620 c         1 XNW      0.902600
     20 OAD         6.6070   -0.3810    6.1000 o         1 XNW     -0.817300
     21 OAB         6.5240    1.2780    4.5880 o         1 XNW     -0.817300
     22 OAG         4.7910    0.6820    7.7080 oh        1 XNW     -0.633800
     23 HAA1        0.0730    0.4520   -0.3090 h1        1 XNW      0.033367
     24 HAA2        0.3260   -1.3620   -0.2270 h1        1 XNW      0.033367
     25 HAA3        0.8000   -0.4390   -1.7430 h1        1 XNW      0.033367
     26 HAK         4.3760    0.2160    0.7950 ha        1 XNW      0.131000
     27 HAJ         0.1980   -0.3690    1.8190 ha        1 XNW      0.131000
     28 HAI         4.9350    0.4310    3.2410 ha        1 XNW      0.165000
     29 HAH         0.7610   -0.1570    4.2220 ha        1 XNW      0.165000
     30 HAL1        2.3210    0.0320    5.9560 hc        1 XNW      0.071700
     31 HAL2        3.9880   -0.5610    5.5590 hc        1 XNW      0.071700
     32 HAU         4.1490    2.1230    4.7490 hc        1 XNW      0.099700
     33 HAT         3.6990    4.4020    5.8310 h1        1 XNW      0.084700
     34 HAF         1.9140    4.1430    7.9830 ho        1 XNW      0.409000
     35 HAS         4.2690    3.1440    8.6440 h1        1 XNW      0.088700
     36 HAE         5.4150    5.3530    7.3140 ho        1 XNW      0.391000
     37 HAM1        6.0170    3.3240    6.0610 hc        1 XNW      0.063700
     38 HAM2        6.5050    2.6290    7.6650 hc        1 XNW      0.063700
     39 HAG         5.3180   -0.1350    7.6630 ho        1 XNW      0.434000
@<TRIPOS>BOND
     1    1    2 1   
     2    1   23 1   
     3    1   24 1   
     4    1   25 1   
     5    2    3 1   
     6    3    4 ar  
     7    3    6 ar  
     8    4    5 ar  
     9    4   26 1   
    10    5    8 ar  
    11    5   28 1   
    12    6    7 ar  
    13    6   27 1   
    14    7    8 ar  
    15    7   29 1   
    16    8    9 1   
    17    9   10 1   
    18    9   30 1   
    19    9   31 1   
    20   10   11 1   
    21   10   18 1   
    22   10   32 1   
    23   11   12 2   
    24   11   13 1   
    25   13   14 1   
    26   13   15 1   
    27   13   33 1   
    28   14   34 1   
    29   15   16 1   
    30   15   17 1   
    31   15   35 1   
    32   16   36 1   
    33   17   18 1   
    34   17   37 1   
    35   17   38 1   
    36   18   19 1   
    37   18   22 1   
    38   19   20 1   
    39   19   21 1   
    40   22   39 1   
@<TRIPOS>SUBSTRUCTURE
     1 XNW         1 TEMP              0 ****  ****    0 ROOT
