@<TRIPOS>MOLECULE
molecule
   66    70     1     0     0
SMALL
bcc


@<TRIPOS>ATOM
      1 Cl37         0.0000     0.0000     0.0000 cl         1 XNZ      -0.086400
      2 C17          1.7360     0.0000     0.0000 ca         1 XNZ       0.079400
      3 C18          2.4270     0.0000     1.1970 ca         1 XNZ      -0.158000
      4 C19          3.8140     0.0010     1.1960 ca         1 XNZ       0.153100
      5 O22          4.4960    -0.0000     2.3730 os         1 XNZ      -0.321900
      6 C23          5.9230    -0.0000     2.2950 c3         1 XNZ       0.187700
      7 C24          6.5000    -0.0000     3.6870 ca         1 XNZ      -0.096300
      8 C29          6.7660    -1.1970     4.3250 ca         1 XNZ      -0.103000
      9 C28          7.2960    -1.1980     5.6020 ca         1 XNZ      -0.132000
     10 C27          7.5620    -0.0000     6.2410 ca         1 XNZ      -0.117000
     11 C26          7.2980     1.1970     5.6020 ca         1 XNZ      -0.132000
     12 C25          6.7720     1.1970     4.3240 ca         1 XNZ      -0.103000
     13 C20          4.5060     0.0000    -0.0060 ca         1 XNZ      -0.226000
     14 C21          3.8110    -0.0000    -1.2000 ca         1 XNZ      -0.064000
     15 C16          2.4290    -0.0060    -1.1980 ca         1 XNZ      -0.120300
     16 C8           1.6740    -0.0130    -2.5030 c3         1 XNZ       0.231200
     17 N7           1.1880    -1.3550    -2.7460 n          1 XNZ      -0.383000
     18 C30         -0.1310    -1.5600    -2.9280 c          1 XNZ       0.667100
     19 O32         -0.9020    -0.6240    -2.8880 o          1 XNZ      -0.588100
     20 C31         -0.6490    -2.9520    -3.1820 c3         1 XNZ      -0.168100
     21 C4           2.0650    -2.4390    -2.7950 ca         1 XNZ       0.064600
     22 C3           2.0240    -3.4420    -1.8380 ca         1 XNZ      -0.145000
     23 C2           2.9420    -4.4760    -1.8930 ca         1 XNZ      -0.098000
     24 C9           2.5810     0.5250    -3.5850 ce         1 XNZ      -0.304400
     25 C12          2.8360     1.9120    -3.4760 c          1 XNZ       0.581300
     26 O36          2.3430     2.5280    -2.5520 o          1 XNZ      -0.535100
     27 C13          3.6940     2.6500    -4.4600 c3         1 XNZ      -0.167400
     28 C14          3.6180     1.9290    -5.8110 c3         1 XNZ      -0.066000
     29 C34          2.1830     1.9680    -6.3390 c3         1 XNZ      -0.085100
     30 C35          4.5570     2.6040    -6.8130 c3         1 XNZ      -0.085100
     31 C15          4.0490     0.4800    -5.5890 c3         1 XNZ      -0.056200
     32 C10          3.1240    -0.1880    -4.5840 c2         1 XNZ       0.220800
     33 N11          2.9220    -1.5120    -4.8020 nu         1 XNZ      -0.685400
     34 C5           2.9960    -2.4960    -3.8180 ca         1 XNZ       0.112600
     35 C6           3.9320    -3.5210    -3.8630 ca         1 XNZ       0.112100
     36 O33          4.8710    -3.5520    -4.8460 oh         1 XNZ      -0.501100
     37 C1           3.8990    -4.5130    -2.8910 ca         1 XNZ      -0.189000
     38 H18          1.8860     0.0200     2.1350 ha         1 XNZ       0.157000
     39 H23          6.2560     0.8850     1.7660 h1         1 XNZ       0.041700
     40 H23A         6.2560    -0.8850     1.7660 h1         1 XNZ       0.041700
     41 H29          6.5570    -2.1350     3.8250 ha         1 XNZ       0.133500
     42 H28          7.5040    -2.1360     6.1020 ha         1 XNZ       0.131500
     43 H27          7.9760    -0.0010     7.2420 ha         1 XNZ       0.130000
     44 H26          7.5080     2.1350     6.1020 ha         1 XNZ       0.131500
     45 H25          6.5650     2.1350     3.8230 ha         1 XNZ       0.133500
     46 H20          5.5890     0.0030    -0.0090 ha         1 XNZ       0.136000
     47 H21          4.3500    -0.0020    -2.1400 ha         1 XNZ       0.140000
     48 H8           0.8190     0.6470    -2.4140 h1         1 XNZ       0.132700
     49 H31         -0.0040    -3.4520    -3.8940 hc         1 XNZ       0.061700
     50 H31A        -1.6540    -2.8960    -3.5820 hc         1 XNZ       0.061700
     51 H31B        -0.6600    -3.5080    -2.2530 hc         1 XNZ       0.061700
     52 H3           1.2770    -3.4180    -1.0540 ha         1 XNZ       0.150000
     53 H2           2.9220    -5.2530    -1.1390 ha         1 XNZ       0.139000
     54 H13          4.7190     2.6610    -4.1110 hc         1 XNZ       0.073200
     55 H13A         3.3300     3.6650    -4.5690 hc         1 XNZ       0.073200
     56 H34          1.4910     1.8320    -5.5160 hc         1 XNZ       0.040367
     57 H34A         2.0430     1.1740    -7.0630 hc         1 XNZ       0.040367
     58 H34B         1.9980     2.9240    -6.8130 hc         1 XNZ       0.040367
     59 H35          4.2920     3.6500    -6.9080 hc         1 XNZ       0.040367
     60 H35A         5.5790     2.5210    -6.4630 hc         1 XNZ       0.040367
     61 H35B         4.4650     2.1190    -7.7770 hc         1 XNZ       0.040367
     62 H15          4.0030    -0.0550    -6.5300 hc         1 XNZ       0.062200
     63 H15A         5.0640     0.4630    -5.2090 hc         1 XNZ       0.062200
     64 HN11         2.7040    -1.8030    -5.7340 hn         1 XNZ       0.448800
     65 HO33         4.9340    -4.4260    -5.1920 ho         1 XNZ       0.420000
     66 H1           4.6130    -5.3270    -2.9250 ha         1 XNZ       0.139000
@<TRIPOS>BOND
     1     1     2 1
     2     2     3 ar
     3     2    15 ar
     4     3     4 ar
     5     4     5 1
     6     4    13 ar
     7     5     6 1
     8     6     7 1
     9     7     8 ar
    10     7    12 ar
    11     8     9 ar
    12     9    10 ar
    13    10    11 ar
    14    11    12 ar
    15    13    14 ar
    16    14    15 ar
    17    15    16 1
    18    16    17 1
    19    16    24 1
    20    17    18 1
    21    17    21 1
    22    18    19 2
    23    18    20 1
    24    21    22 ar
    25    21    34 ar
    26    22    23 ar
    27    23    37 ar
    28    24    25 1
    29    24    32 2
    30    25    26 2
    31    25    27 1
    32    27    28 1
    33    28    29 1
    34    28    30 1
    35    28    31 1
    36    31    32 1
    37    32    33 1
    38    33    34 1
    39    34    35 ar
    40    35    36 1
    41    35    37 ar
    42     3    38 1
    43     6    39 1
    44     6    40 1
    45     8    41 1
    46     9    42 1
    47    10    43 1
    48    11    44 1
    49    12    45 1
    50    13    46 1
    51    14    47 1
    52    16    48 1
    53    20    49 1
    54    20    50 1
    55    20    51 1
    56    22    52 1
    57    23    53 1
    58    27    54 1
    59    27    55 1
    60    29    56 1
    61    29    57 1
    62    29    58 1
    63    30    59 1
    64    30    60 1
    65    30    61 1
    66    31    62 1
    67    31    63 1
    68    33    64 1
    69    36    65 1
    70    37    66 1
@<TRIPOS>SUBSTRUCTURE
     1 XNZ         1 TEMP              0 ****  ****    0 ROOT
