@<TRIPOS>MOLECULE
XNZ
   66    70     1     0     0
SMALL
bcc


@<TRIPOS>ATOM
      1 Cl37         0.0000     0.0000     0.0000 cl         1 XNZ       0.000600
      2 C17          1.7360     0.0000     0.0000 ca         1 XNZ       0.014400
      3 C18          2.4270     0.0000     1.1970 ca         1 XNZ      -0.144000
      4 C19          3.8140     0.0010     1.1960 ca         1 XNZ       0.162100
      5 O22          4.4960    -0.0000     2.3730 os         1 XNZ      -0.299900
      6 C23          5.9230    -0.0000     2.2950 c3         1 XNZ       0.262700
      7 C24          6.5000    -0.0000     3.6870 ca         1 XNZ      -0.113300
      8 C29          6.7660    -1.1970     4.3250 ca         1 XNZ      -0.075000
      9 C28          7.2960    -1.1980     5.6020 ca         1 XNZ      -0.105500
     10 C27          7.5620    -0.0000     6.2410 ca         1 XNZ      -0.091000
     11 C26          7.2980     1.1970     5.6020 ca         1 XNZ      -0.105500
     12 C25          6.7720     1.1970     4.3240 ca         1 XNZ      -0.075000
     13 C20          4.5060     0.0000    -0.0060 ca         1 XNZ      -0.215000
     14 C21          3.8110    -0.0000    -1.2000 ca         1 XNZ      -0.040000
     15 C16          2.4290    -0.0060    -1.1980 ca         1 XNZ      -0.135300
     16 C8           1.6740    -0.0130    -2.5030 c3         1 XNZ       0.148200
     17 N7           1.1880    -1.3550    -2.7460 n          1 XNZ      -0.009000
     18 C30         -0.1310    -1.5600    -2.9280 c          1 XNZ       0.576100
     19 O32         -0.9020    -0.6240    -2.8880 o          1 XNZ      -0.628100
     20 C31         -0.6490    -2.9520    -3.1820 c3         1 XNZ      -0.076100
     21 C4           2.0650    -2.4390    -2.7950 ca         1 XNZ      -0.059400
     22 C3           2.0240    -3.4420    -1.8380 ca         1 XNZ      -0.120000
     23 C2           2.9420    -4.4760    -1.8930 ca         1 XNZ      -0.059000
     24 C9           2.5810     0.5250    -3.5850 ce         1 XNZ      -0.310400
     25 C12          2.8360     1.9120    -3.4760 c          1 XNZ       0.627300
     26 O36          2.3430     2.5280    -2.5520 o          1 XNZ      -0.568100
     27 C13          3.6940     2.6500    -4.4600 c3         1 XNZ      -0.110400
     28 C14          3.6180     1.9290    -5.8110 c3         1 XNZ      -0.063000
     29 C34          2.1830     1.9680    -6.3390 c3         1 XNZ       0.002400
     30 C35          4.5570     2.6040    -6.8130 c3         1 XNZ       0.002400
     31 C15          4.0490     0.4800    -5.5890 c3         1 XNZ       0.005800
     32 C10          3.1240    -0.1880    -4.5840 c2         1 XNZ       0.059800
     33 N11          2.9220    -1.5120    -4.8020 nu         1 XNZ      -0.231400
     34 C5           2.9960    -2.4960    -3.8180 ca         1 XNZ      -0.041400
     35 C6           3.9320    -3.5210    -3.8630 ca         1 XNZ       0.139100
     36 O33          4.8710    -3.5520    -4.8460 oh         1 XNZ      -0.482100
     37 C1           3.8990    -4.5130    -2.8910 ca         1 XNZ      -0.167000
     38 H18          1.8860     0.0200     2.1350 ha         1 XNZ       0.128000
     39 H23          6.2560     0.8850     1.7660 h1         1 XNZ       0.005200
     40 H23A         6.2560    -0.8850     1.7660 h1         1 XNZ       0.005200
     41 H29          6.5570    -2.1350     3.8250 ha         1 XNZ       0.106500
     42 H28          7.5040    -2.1360     6.1020 ha         1 XNZ       0.103500
     43 H27          7.9760    -0.0010     7.2420 ha         1 XNZ       0.102000
     44 H26          7.5080     2.1350     6.1020 ha         1 XNZ       0.103500
     45 H25          6.5650     2.1350     3.8230 ha         1 XNZ       0.106500
     46 H20          5.5890     0.0030    -0.0090 ha         1 XNZ       0.120000
     47 H21          4.3500    -0.0020    -2.1400 ha         1 XNZ       0.113000
     48 H8           0.8190     0.6470    -2.4140 h1         1 XNZ       0.106700
     49 H31         -0.0040    -3.4520    -3.8940 hc         1 XNZ       0.026033
     50 H31A        -1.6540    -2.8960    -3.5820 hc         1 XNZ       0.026033
     51 H31B        -0.6600    -3.5080    -2.2530 hc         1 XNZ       0.026033
     52 H3           1.2770    -3.4180    -1.0540 ha         1 XNZ       0.123000
     53 H2           2.9220    -5.2530    -1.1390 ha         1 XNZ       0.107000
     54 H13          4.7190     2.6610    -4.1110 hc         1 XNZ       0.043200
     55 H13A         3.3300     3.6650    -4.5690 hc         1 XNZ       0.043200
     56 H34          1.4910     1.8320    -5.5160 hc         1 XNZ       0.010033
     57 H34A         2.0430     1.1740    -7.0630 hc         1 XNZ       0.010033
     58 H34B         1.9980     2.9240    -6.8130 hc         1 XNZ       0.010033
     59 H35          4.2920     3.6500    -6.9080 hc         1 XNZ       0.010033
     60 H35A         5.5790     2.5210    -6.4630 hc         1 XNZ       0.010033
     61 H35B         4.4650     2.1190    -7.7770 hc         1 XNZ       0.010033
     62 H15          4.0030    -0.0550    -6.5300 hc         1 XNZ       0.031700
     63 H15A         5.0640     0.4630    -5.2090 hc         1 XNZ       0.031700
     64 HN11         2.7040    -1.8030    -5.7340 hn         1 XNZ       0.287800
     65 HO33         4.9340    -4.4260    -5.1920 ho         1 XNZ       0.405000
     66 H1           4.6130    -5.3270    -2.9250 ha         1 XNZ       0.114000
@<TRIPOS>BOND
     1     1     2 1   
     2     2     3 ar  
     3     2    15 ar  
     4     3     4 ar  
     5     3    38 1   
     6     4     5 1   
     7     4    13 ar  
     8     5     6 1   
     9     6     7 1   
    10     6    39 1   
    11     6    40 1   
    12     7     8 ar  
    13     7    12 ar  
    14     8     9 ar  
    15     8    41 1   
    16     9    10 ar  
    17     9    42 1   
    18    10    11 ar  
    19    10    43 1   
    20    11    12 ar  
    21    11    44 1   
    22    12    45 1   
    23    13    14 ar  
    24    13    46 1   
    25    14    15 ar  
    26    14    47 1   
    27    15    16 1   
    28    16    17 1   
    29    16    24 1   
    30    16    48 1   
    31    17    18 1   
    32    17    21 1   
    33    18    19 2   
    34    18    20 1   
    35    20    49 1   
    36    20    50 1   
    37    20    51 1   
    38    21    22 ar  
    39    21    34 ar  
    40    22    23 ar  
    41    22    52 1   
    42    23    37 ar  
    43    23    53 1   
    44    24    25 1   
    45    24    32 2   
    46    25    26 2   
    47    25    27 1   
    48    27    28 1   
    49    27    54 1   
    50    27    55 1   
    51    28    29 1   
    52    28    30 1   
    53    28    31 1   
    54    29    56 1   
    55    29    57 1   
    56    29    58 1   
    57    30    59 1   
    58    30    60 1   
    59    30    61 1   
    60    31    32 1   
    61    31    62 1   
    62    31    63 1   
    63    32    33 1   
    64    33    34 1   
    65    33    64 1   
    66    34    35 ar  
    67    35    36 1   
    68    35    37 ar  
    69    36    65 1   
    70    37    66 1   
@<TRIPOS>SUBSTRUCTURE
     1 XNZ         1 TEMP              0 ****  ****    0 ROOT
