@<TRIPOS>MOLECULE
XO3
   37    39     1     0     0
SMALL
bcc


@<TRIPOS>ATOM
      1 C1           0.0000     0.0000     0.0000 c3         1 XO3      -0.069400
      2 C2           1.5310     0.0000     0.0000 c3         1 XO3       0.149800
      3 N3           2.0210     0.0000     1.3840 n7         1 XO3      -0.576200
      4 C4           1.5890    -1.2060     2.1000 c3         1 XO3       0.122500
      5 C5           0.0600    -1.2420     2.1640 c3         1 XO3      -0.066400
      6 C6          -0.5050    -1.2410     0.7410 c3         1 XO3       0.044500
      7 C7          -2.0100    -1.2170     0.7960 cc         1 XO3       0.062900
      8 O8          -2.7660    -0.2710     1.3630 os         1 XO3      -0.139200
      9 N9          -3.9470    -0.5070     1.2590 ns         1 XO3      -0.002400
     10 C10         -4.1420    -1.6650     0.5960 c          1 XO3       0.550700
     11 C11         -2.8470    -2.1450     0.2760 cd         1 XO3      -0.322200
     12 O12         -5.2100    -2.1880     0.3230 o          1 XO3      -0.674500
     13 C13          2.1560    -1.1860     3.5210 c3         1 XO3       0.035900
     14 C14          3.6600    -1.2760     3.4620 ca         1 XO3      -0.084300
     15 C15          4.4190    -0.1230     3.3900 ca         1 XO3      -0.090500
     16 C16          5.7980    -0.2050     3.3360 ca         1 XO3      -0.100500
     17 C17          6.4180    -1.4410     3.3530 ca         1 XO3      -0.103000
     18 C18          5.6590    -2.5930     3.4270 ca         1 XO3      -0.100500
     19 C19          4.2800    -2.5110     3.4840 ca         1 XO3      -0.090500
     20 H11C        -0.3610    -0.0180    -1.0210 hc         1 XO3       0.026700
     21 H12C        -0.3610     0.8900     0.5010 hc         1 XO3       0.026700
     22 H21C         1.8910    -0.8860    -0.5090 h1         1 XO3       0.026700
     23 H22C         1.8910     0.8860    -0.5090 h1         1 XO3       0.026700
     24 H6          -0.1720    -2.1320     0.2210 hc         1 XO3       0.054700
     25 H3           1.6790     0.8110     1.8590 hn         1 XO3       0.256800
     26 H4           1.9470    -2.0830     1.5760 h1         1 XO3       0.045700
     27 H51C        -0.2990    -0.3680     2.6950 hc         1 XO3       0.030200
     28 H52C        -0.2580    -2.1400     2.6780 hc         1 XO3       0.030200
     29 H131         1.7660    -2.0290     4.0780 hc         1 XO3       0.020700
     30 H132         1.8690    -0.2640     4.0120 hc         1 XO3       0.020700
     31 H11         -2.6510    -2.5630    -0.7040 ha         1 XO3       0.159000
     32 H9          -4.6780     0.0750     1.6170 hn         1 XO3       0.219500
     33 H15          3.9330     0.8450     3.3760 ha         1 XO3       0.104000
     34 H19          3.6860    -3.4150     3.5420 ha         1 XO3       0.104000
     35 H16          6.3920     0.6990     3.2790 ha         1 XO3       0.101000
     36 H17          7.4980    -1.5050     3.3100 ha         1 XO3       0.101000
     37 H18          6.1450    -3.5610     3.4420 ha         1 XO3       0.101000
@<TRIPOS>BOND
     1     1     2 1   
     2     1     6 1   
     3     1    20 1   
     4     1    21 1   
     5     2     3 1   
     6     2    22 1   
     7     2    23 1   
     8     3     4 1   
     9     3    25 1   
    10     4     5 1   
    11     4    13 1   
    12     4    26 1   
    13     5     6 1   
    14     5    27 1   
    15     5    28 1   
    16     6     7 1   
    17     6    24 1   
    18     7     8 1   
    19     7    11 2   
    20     8     9 1   
    21     9    10 1   
    22     9    32 1   
    23    10    11 1   
    24    10    12 2   
    25    11    31 1   
    26    13    14 1   
    27    13    29 1   
    28    13    30 1   
    29    14    15 ar  
    30    14    19 ar  
    31    15    16 ar  
    32    15    33 1   
    33    16    17 ar  
    34    16    35 1   
    35    17    18 ar  
    36    17    36 1   
    37    18    19 ar  
    38    18    37 1   
    39    19    34 1   
@<TRIPOS>SUBSTRUCTURE
     1 XO3         1 TEMP              0 ****  ****    0 ROOT
