@<TRIPOS>MOLECULE
molecule
   45    48     1     0     0
SMALL
bcc


@<TRIPOS>ATOM
      1 C1           0.0000     0.0000     0.0000 ca         1 XOC       0.022900
      2 C2           1.3880     0.0000     0.0000 ca         1 XOC      -0.080500
      3 C3           2.0840     0.0000     1.1950 ca         1 XOC      -0.150500
      4 C4           1.3960    -0.0010     2.3940 ca         1 XOC      -0.099000
      5 C5           0.0140    -0.0010     2.4020 ca         1 XOC      -0.155000
      6 C6          -0.6950    -0.0020     1.2050 ca         1 XOC       0.085700
      7 C7          -2.9110     0.4660     0.2330 ca         1 XOC       0.085700
      8 C8          -4.1960     0.8900     0.5560 ca         1 XOC      -0.155000
      9 C9          -5.0430     1.3590    -0.4300 ca         1 XOC      -0.099000
     10 C10         -4.6190     1.4120    -1.7450 ca         1 XOC      -0.150500
     11 C11         -3.3440     0.9950    -2.0750 ca         1 XOC      -0.080500
     12 C12         -2.4860     0.5240    -1.0900 ca         1 XOC       0.022900
     13 C13         -3.2570     0.3000     3.3000 c          1 XOC       0.638100
     14 C14         -3.9170    -0.2600     4.5340 c3         1 XOC       0.032800
     15 C15         -5.0980     1.0330     6.5190 c3         1 XOC       0.128300
     16 C16         -5.6580     2.2870     7.1940 c3         1 XOC      -0.075400
     17 C17         -4.4980     3.1610     7.6790 c3         1 XOC      -0.088400
     18 C18         -3.6020     3.5130     6.4880 c3         1 XOC      -0.075400
     19 C19         -3.1020     2.2240     5.8330 c3         1 XOC       0.128300
     20 N1          -2.0880    -0.0090     1.2500 na         1 XOC      -0.069700
     21 N2          -2.7000    -0.5300     2.3970 ns         1 XOC      -0.481200
     22 N3          -4.2490     1.4240     5.3850 n3         1 XOC      -0.609600
     23 O2          -3.1230     1.4990     3.1770 o          1 XOC      -0.553100
     24 S1          -0.8620     0.0090    -1.5340 ss         1 XOC      -0.261800
     25 H2           1.9280     0.0010    -0.9390 ha         1 XOC       0.142000
     26 H3           3.1670    -0.0000     1.1920 ha         1 XOC       0.134000
     27 H4           1.9420    -0.0010     3.3300 ha         1 XOC       0.133000
     28 H5          -0.5190    -0.0010     3.3440 ha         1 XOC       0.145000
     29 H8          -4.5350     0.8520     1.5840 ha         1 XOC       0.145000
     30 H9          -6.0430     1.6860    -0.1720 ha         1 XOC       0.133000
     31 H10         -5.2860     1.7800    -2.5150 ha         1 XOC       0.134000
     32 H11         -3.0120     1.0370    -3.1050 ha         1 XOC       0.142000
     33 H141        -3.1910    -0.8230     5.1080 h1         1 XOC       0.067200
     34 H142        -4.7310    -0.9130     4.2430 h1         1 XOC       0.067200
     35 HA          -2.7440    -1.5210     2.5350 hn         1 XOC       0.332500
     36 H152        -5.9180     0.4220     6.1600 h1         1 XOC       0.042450
     37 H161        -6.2550     2.8440     6.4820 hc         1 XOC       0.052950
     38 H162        -6.2700     1.9980     8.0400 hc         1 XOC       0.052950
     39 H171        -3.9200     2.6170     8.4160 hc         1 XOC       0.041700
     40 H172        -4.8900     4.0700     8.1180 hc         1 XOC       0.041700
     41 H181        -4.1710     4.0870     5.7660 hc         1 XOC       0.052950
     42 H182        -2.7550     4.0940     6.8330 hc         1 XOC       0.052950
     43 H191        -2.5260     1.6550     6.5520 h1         1 XOC       0.042450
     44 H192        -2.4820     2.4710     4.9800 h1         1 XOC       0.042450
     45 H151        -4.5090     0.4720     7.2340 h1         1 XOC       0.042450
@<TRIPOS>BOND
     1     1     2 ar
     2     1     6 ar
     3     1    24 1
     4     2     3 ar
     5     3     4 ar
     6     4     5 ar
     7     5     6 ar
     8     6    20 1
     9     7     8 ar
    10     7    12 ar
    11     7    20 1
    12     8     9 ar
    13     9    10 ar
    14    10    11 ar
    15    11    12 ar
    16    12    24 1
    17    13    14 1
    18    13    21 1
    19    13    23 2
    20    14    22 1
    21    15    16 1
    22    15    22 1
    23    16    17 1
    24    17    18 1
    25    18    19 1
    26    19    22 1
    27    20    21 1
    28     2    25 1
    29     3    26 1
    30     4    27 1
    31     5    28 1
    32     8    29 1
    33     9    30 1
    34    10    31 1
    35    11    32 1
    36    14    33 1
    37    14    34 1
    38    21    35 1
    39    15    45 1
    40    15    36 1
    41    16    37 1
    42    16    38 1
    43    17    39 1
    44    17    40 1
    45    18    41 1
    46    18    42 1
    47    19    43 1
    48    19    44 1
@<TRIPOS>SUBSTRUCTURE
     1 XOC         1 TEMP              0 ****  ****    0 ROOT
