@<TRIPOS>MOLECULE
molecule
   26    25     1     0     0
SMALL
bcc


@<TRIPOS>ATOM
      1 O2           0.0000     0.0000     0.0000 o          1 XOG      -0.494100
      2 C8           1.2130     0.0000     0.0000 c          1 XOG       0.517100
      3 C7           1.9450     0.0000     1.2670 ce         1 XOG      -0.501200
      4 C6           3.2800    -0.0010     1.2660 c2         1 XOG       0.109600
      5 C10          4.0330    -0.0010    -0.0400 c3         1 XOG      -0.146900
      6 C5           4.0340    -0.0010     2.5700 c3         1 XOG      -0.023200
      7 C4           4.3970    -1.4380     2.9500 c3         1 XOG      -0.100200
      8 C3           5.1510    -1.4380     4.2540 c2         1 XOG      -0.422200
      9 C2           6.3410    -2.0370     4.3370 ce         1 XOG      -0.083400
     10 C9           6.8700    -2.8290     3.1700 c3         1 XOG      -0.111900
     11 C1           7.1330    -1.9240     5.5620 c          1 XOG       0.572100
     12 O1           8.2140    -2.4680     5.6380 o          1 XOG      -0.517100
     13 H2           1.7550     0.0200    -0.9380 h4         1 XOG      -0.047800
     14 H4           1.7990    -0.8740     0.6440 ha         1 XOG       0.257000
     15 H5           5.0940     0.1000     0.1550 hc         1 XOG       0.063700
     16 H6           3.8480    -0.9310    -0.5630 hc         1 XOG       0.063700
     17 H7           3.6970     0.8290    -0.6500 hc         1 XOG       0.063700
     18 H8           4.9390     0.5840     2.4640 hc         1 XOG       0.087200
     19 H9           3.4130     0.4310     3.3460 hc         1 XOG       0.087200
     20 H10          3.4920    -2.0230     3.0560 hc         1 XOG       0.043700
     21 H11          5.0180    -1.8700     2.1740 hc         1 XOG       0.043700
     22 H12          4.5390    -2.2800     3.9510 ha         1 XOG       0.336000
     23 H13          7.7510    -3.3800     3.4760 hc         1 XOG       0.058367
     24 H14          6.1100    -3.5230     2.8310 hc         1 XOG       0.058367
     25 H15          7.1280    -2.1550     2.3630 hc         1 XOG       0.058367
     26 H16          6.7440    -1.3720     6.4100 h4         1 XOG       0.030200
@<TRIPOS>BOND
     1    12    11 2
     2    11     9 1
     3     9    10 1
     4     9     8 2
     5     8     7 1
     6     7     6 1
     7     6     4 1
     8     4     3 2
     9     4     5 1
    10     3     2 1
    11     2     1 2
    12     2    13 1
    13     3    14 1
    14     5    15 1
    15     5    16 1
    16     5    17 1
    17     6    18 1
    18     6    19 1
    19     7    20 1
    20     7    21 1
    21     8    22 1
    22    10    23 1
    23    10    24 1
    24    10    25 1
    25    11    26 1
@<TRIPOS>SUBSTRUCTURE
     1 XOG         1 TEMP              0 ****  ****    0 ROOT
