@<TRIPOS>MOLECULE
XOG
   26    25     1     0     0
SMALL
bcc


@<TRIPOS>ATOM
      1 O2         -0.1830   -0.4270    0.0010 o         1 XOG     -0.524100
      2 C8          1.0300   -0.2030   -0.0010 c         1 XOG      0.560100
      3 C7          1.8320   -0.1800    1.2260 ce        1 XOG     -0.280200
      4 C6          3.1580    0.0420    1.2540 c2        1 XOG     -0.039400
      5 C10         3.9680    0.2920    0.0360 c3        1 XOG     -0.081900
      6 C5          3.8980    0.0650    2.5500 c3        1 XOG     -0.057200
      7 C4          4.7650   -1.1700    2.7160 c3        1 XOG     -0.056200
      8 C3          5.5460   -1.1350    3.9730 c2        1 XOG     -0.111200
      9 C2          6.4390   -2.0840    4.3100 ce        1 XOG     -0.215400
     10 C9          6.7250   -3.2540    3.4480 c3        1 XOG     -0.059900
     11 C1          7.1750   -1.9750    5.5850 c         1 XOG      0.566100
     12 O1          8.0110   -2.7960    5.9670 o         1 XOG     -0.522100
     13 H2          1.5770   -0.0040   -0.9520 h4        1 XOG     -0.007800
     14 H4          1.2680   -0.3590    2.1570 ha        1 XOG      0.149000
     15 H5          3.8750   -0.5620   -0.6810 hc        1 XOG      0.053033
     16 H6          5.0500    0.4200    0.2870 hc        1 XOG      0.053033
     17 H7          3.6170    1.2220   -0.4790 hc        1 XOG      0.053033
     18 H8          4.5430    0.9850    2.5850 hc        1 XOG      0.057200
     19 H9          3.1780    0.1300    3.4100 hc        1 XOG      0.057200
     20 H10         4.1170   -2.0910    2.7090 hc        1 XOG      0.064700
     21 H11         5.4660   -1.2630    1.8410 hc        1 XOG      0.064700
     22 H12         5.3580   -0.2770    4.6410 ha        1 XOG      0.127000
     23 H13         5.7860   -3.8280    3.2480 hc        1 XOG      0.052367
     24 H14         7.1410   -2.9180    2.4640 hc        1 XOG      0.052367
     25 H15         7.4660   -3.9370    3.9330 hc        1 XOG      0.052367
     26 H16         6.9230   -1.0810    6.2020 h4        1 XOG     -0.006800
@<TRIPOS>BOND
     1    1    2 2   
     2    2    3 1   
     3    2   13 1   
     4    3    4 2   
     5    3   14 1   
     6    4    5 1   
     7    4    6 1   
     8    5   15 1   
     9    5   16 1   
    10    5   17 1   
    11    6    7 1   
    12    6   18 1   
    13    6   19 1   
    14    7    8 1   
    15    7   20 1   
    16    7   21 1   
    17    8    9 2   
    18    8   22 1   
    19    9   10 1   
    20    9   11 1   
    21   10   23 1   
    22   10   24 1   
    23   10   25 1   
    24   11   12 2   
    25   11   26 1   
@<TRIPOS>SUBSTRUCTURE
     1 XOG         1 TEMP              0 ****  ****    0 ROOT
