@<TRIPOS>MOLECULE
XOJ
   76    78     1     0     0
SMALL
bcc


@<TRIPOS>ATOM
      1 C            0.0000     0.0000     0.0000 c3         1 XOJ      -0.002100
      2 N            2.0200     0.0000     1.3850 n3         1 XOJ      -0.541600
      3 O            7.7480     9.1350     0.2630 o          1 XOJ      -0.622100
      4 C1           1.5300     0.0000     0.0000 c3         1 XOJ       0.144800
      5 N1           5.5180     3.4080     1.0930 nu         1 XOJ      -0.478900
      6 O1          14.4070     9.3620    -0.6620 os         1 XOJ      -0.305900
      7 C2           1.6690    -1.2520     2.0680 c3         1 XOJ       0.144800
      8 N2           7.7860     3.0460     1.5080 nb         1 XOJ      -0.696000
      9 O2          15.0200     7.3430     3.6010 os         1 XOJ      -0.305900
     10 C3           1.8260    -1.0700     3.5790 c3         1 XOJ      -0.002100
     11 N3           8.4990     6.9730     0.8150 nb         1 XOJ      -0.559000
     12 C4           3.4680     0.2380     1.4320 c3         1 XOJ       0.150800
     13 N4           7.0220     5.1740     0.9590 nb         1 XOJ      -0.683000
     14 C5           3.7510     1.7190     1.1720 c3         1 XOJ      -0.046400
     15 N5           9.9120     8.8230     0.6510 ns         1 XOJ      -0.145400
     16 C6           5.2470     1.9900     1.3420 c3         1 XOJ       0.163800
     17 N6           9.0560    10.9230     0.0960 ns         1 XOJ      -0.218900
     18 C7           6.8090     3.8920     1.1890 ca         1 XOJ       0.730900
     19 C8           9.0350     3.4500     1.6150 ca         1 XOJ       0.527200
     20 C9           9.3240     4.8050     1.3820 ca         1 XOJ      -0.427600
     21 C10         10.6310     5.3120     1.4740 ca         1 XOJ       0.035000
     22 C11         10.8230     6.6620     1.2280 cp         1 XOJ      -0.239300
     23 C12          9.7160     7.4720     0.8960 ca         1 XOJ       0.433200
     24 C13          8.2590     5.6800     1.0430 ca         1 XOJ       0.693300
     25 C14          8.8650     9.6100     0.3340 c          1 XOJ       0.551100
     26 C15          7.9180    11.7770    -0.2490 c3         1 XOJ       0.028400
     27 C16          6.8980    11.7530     0.8920 c3         1 XOJ      -0.018767
     28 C17          8.4050    13.2110    -0.4670 c3         1 XOJ      -0.018767
     29 C18          7.2620    11.2610    -1.5310 c3         1 XOJ      -0.018767
     30 C19         12.1810     7.2520     1.3120 cp         1 XOJ       0.059000
     31 C20         12.9760     7.0180     2.4330 ca         1 XOJ      -0.197000
     32 C21         14.2440     7.5700     2.5080 ca         1 XOJ       0.201600
     33 C22         14.7230     8.3550     1.4700 ca         1 XOJ      -0.327000
     34 C23         13.9350     8.5910     0.3530 ca         1 XOJ       0.201600
     35 C24         12.6680     8.0360     0.2680 ca         1 XOJ      -0.197000
     36 C25         15.7240     9.8960    -0.5100 c3         1 XOJ       0.244700
     37 C26         16.3160     7.9430     3.6120 c3         1 XOJ       0.244700
     38 H           -0.3610    -1.0210    -0.0190 hc         1 XOJ       0.007200
     39 HA          -0.3610     0.5270    -0.8750 hc         1 XOJ       0.007200
     40 HB          -0.3610     0.4940     0.8940 hc         1 XOJ       0.007200
     41 H1           1.8910     0.8850    -0.5110 h1         1 XOJ       0.009950
     42 H1A          1.8910    -0.8850    -0.5110 h1         1 XOJ       0.009950
     43 H2           0.6430    -1.5120     1.8410 h1         1 XOJ       0.009950
     44 H2A          2.3260    -2.0440     1.7300 h1         1 XOJ       0.009950
     45 H3           2.8300    -1.3500     3.8740 hc         1 XOJ       0.007200
     46 H3A          1.6500    -0.0320     3.8380 hc         1 XOJ       0.007200
     47 H3B          1.1100    -1.6970     4.0950 hc         1 XOJ       0.007200
     48 H4           3.8480    -0.0360     2.4090 h1         1 XOJ       0.014200
     49 H4A          3.9570    -0.3620     0.6730 h1         1 XOJ       0.014200
     50 H5           3.1920     2.3220     1.8770 hc         1 XOJ       0.026700
     51 H5A          3.4510     1.9720     0.1620 hc         1 XOJ       0.026700
     52 H6           5.5480     1.7370     2.3510 h1         1 XOJ       0.023200
     53 H6A          5.8060     1.3870     0.6370 h1         1 XOJ       0.023200
     54 HN1          4.7640     4.0310     0.8800 hn         1 XOJ       0.307800
     55 H8           9.8230     2.7530     1.8750 h4         1 XOJ      -0.020900
     56 H10         11.4630     4.6670     1.7310 ha         1 XOJ       0.113000
     57 HN5         10.8280     9.2190     0.7360 hn         1 XOJ       0.185500
     58 HN6          9.9710    11.3190     0.1820 hn         1 XOJ       0.164500
     59 H16          6.2500    12.6180     0.8150 hc         1 XOJ       0.016144
     60 H16A         7.4190    11.7760     1.8420 hc         1 XOJ       0.016144
     61 H16B         6.3050    10.8500     0.8270 hc         1 XOJ       0.016144
     62 H17          8.8660    13.5780     0.4420 hc         1 XOJ       0.016144
     63 H17A         9.1300    13.2280    -1.2720 hc         1 XOJ       0.016144
     64 H17B         7.5640    13.8430    -0.7260 hc         1 XOJ       0.016144
     65 H18          6.6680    12.0500    -1.9760 hc         1 XOJ       0.016144
     66 H18A         8.0290    10.9480    -2.2290 hc         1 XOJ       0.016144
     67 H18B         6.6230    10.4180    -1.2950 hc         1 XOJ       0.016144
     68 H20         12.5860     6.4420     3.2630 ha         1 XOJ       0.129500
     69 H22         15.7150     8.7860     1.5320 ha         1 XOJ       0.140000
     70 H24         12.0880     8.1480    -0.6410 ha         1 XOJ       0.129500
     71 H25         15.9760    10.4870    -1.3830 h1         1 XOJ      -0.001967
     72 H25A        16.4340     9.0850    -0.4060 h1         1 XOJ      -0.001967
     73 H25B        15.7600    10.5230     0.3730 h1         1 XOJ      -0.001967
     74 H26         16.8260     7.6840     4.5320 h1         1 XOJ      -0.001967
     75 H26A        16.8890     7.5810     2.7670 h1         1 XOJ      -0.001967
     76 H26B        16.2160     9.0190     3.5460 h1         1 XOJ      -0.001967
@<TRIPOS>BOND
     1     1     4 1   
     2     1    38 1   
     3     1    39 1   
     4     1    40 1   
     5     2     4 1   
     6     2     7 1   
     7     2    12 1   
     8     3    25 2   
     9     4    41 1   
    10     4    42 1   
    11     5    16 1   
    12     5    18 1   
    13     5    54 1   
    14     6    34 1   
    15     6    36 1   
    16     7    10 1   
    17     7    43 1   
    18     7    44 1   
    19     8    18 ar  
    20     8    19 ar  
    21     9    32 1   
    22     9    37 1   
    23    10    45 1   
    24    10    46 1   
    25    10    47 1   
    26    11    23 ar  
    27    11    24 ar  
    28    12    14 1   
    29    12    48 1   
    30    12    49 1   
    31    13    18 ar  
    32    13    24 ar  
    33    14    16 1   
    34    14    50 1   
    35    14    51 1   
    36    15    23 1   
    37    15    25 1   
    38    15    57 1   
    39    16    52 1   
    40    16    53 1   
    41    17    25 1   
    42    17    26 1   
    43    17    58 1   
    44    19    20 ar  
    45    19    55 1   
    46    20    21 ar  
    47    20    24 ar  
    48    21    22 ar  
    49    21    56 1   
    50    22    23 ar  
    51    22    30 1   
    52    26    27 1   
    53    26    28 1   
    54    26    29 1   
    55    27    59 1   
    56    27    60 1   
    57    27    61 1   
    58    28    62 1   
    59    28    63 1   
    60    28    64 1   
    61    29    65 1   
    62    29    66 1   
    63    29    67 1   
    64    30    31 ar  
    65    30    35 ar  
    66    31    32 ar  
    67    31    68 1   
    68    32    33 ar  
    69    33    34 ar  
    70    33    69 1   
    71    34    35 ar  
    72    35    70 1   
    73    36    71 1   
    74    36    72 1   
    75    36    73 1   
    76    37    74 1   
    77    37    75 1   
    78    37    76 1   
@<TRIPOS>SUBSTRUCTURE
     1 XOJ         1 TEMP              0 ****  ****    0 ROOT
