@<TRIPOS>MOLECULE
molecule
   38    40     1     0     0
SMALL
bcc


@<TRIPOS>ATOM
      1 C1           0.0000     0.0000     0.0000 ca         1 XOP      -0.225500
      2 C2           1.3820     0.0000     0.0000 ca         1 XOP      -0.070500
      3 C3           2.0730     0.0000     1.1970 ca         1 XOP      -0.161000
      4 C4           1.3820     0.0010     2.3940 ca         1 XOP      -0.134000
      5 C5           0.0010     0.0020     2.3940 ca         1 XOP      -0.161000
      6 C6          -0.6910     0.0010     1.1970 ca         1 XOP      -0.070500
      7 C7          -0.2620    -0.0490    -4.1630 c3         1 XOP       0.236100
      8 C8           0.4640     1.1200    -4.8360 c3         1 XOP      -0.081900
      9 C9           1.9700     0.8130    -4.8780 c3         1 XOP       0.153500
     10 N            2.1510    -0.3820    -5.7460 n3         1 XOP      -0.703600
     11 O1          -1.6600     1.2750    -1.7010 o          1 XOP      -0.811000
     12 O2           0.1330    -0.1280    -2.7920 os         1 XOP      -0.602200
     13 O3          -1.9350    -1.2320    -1.6030 o          1 XOP      -0.811000
     14 P           -0.9080     0.0060    -1.5710 p5         1 XOP       1.206900
     15 C10          2.3970     0.3440    -3.4680 c3         1 XOP      -0.098900
     16 C11          2.1720    -1.1820    -3.4730 c3         1 XOP      -0.098900
     17 C12          1.6280    -1.4970    -4.9120 c3         1 XOP       0.153500
     18 C13          0.0980    -1.3580    -4.8720 c3         1 XOP      -0.081900
     19 C14          3.5690    -0.5870    -6.0690 c3         1 XOP       0.142100
     20 H2           1.9230    -0.0010    -0.9380 ha         1 XOP       0.138000
     21 H3           3.1570    -0.0000     1.1960 ha         1 XOP       0.106000
     22 H4           1.9240     0.0010     3.3320 ha         1 XOP       0.102000
     23 H5          -0.5410     0.0030     3.3320 ha         1 XOP       0.106000
     24 H6          -1.7740     0.0010     1.1980 ha         1 XOP       0.138000
     25 H7          -1.3320     0.1090    -4.2210 h1         1 XOP       0.055700
     26 H8           0.2940     2.0270    -4.2700 hc         1 XOP       0.051450
     27 H8A          0.0910     1.2460    -5.8460 hc         1 XOP       0.051450
     28 H9           2.5520     1.6590    -5.2210 h1         1 XOP       0.048700
     29 H10          1.7790     0.8140    -2.7120 hc         1 XOP       0.050700
     30 H10A         3.4420     0.5710    -3.2970 hc         1 XOP       0.050700
     31 H11          1.4400    -1.4580    -2.7240 hc         1 XOP       0.050700
     32 H11A         3.1060    -1.7020    -3.3000 hc         1 XOP       0.050700
     33 H12          1.9480    -2.4680    -5.2720 h1         1 XOP       0.048700
     34 H13         -0.2910    -1.3430    -5.8830 hc         1 XOP       0.051450
     35 H13A        -0.3280    -2.1940    -4.3310 hc         1 XOP       0.051450
     36 H14          4.1320    -0.7240    -5.1540 h1         1 XOP       0.022700
     37 H14A         3.6740    -1.4670    -6.6920 h1         1 XOP       0.022700
     38 H14B         3.9480     0.2790    -6.6000 h1         1 XOP       0.022700
@<TRIPOS>BOND
     1     2     1 ar
     2     1     6 ar
     3     1    14 1
     4     3     2 ar
     5     2    20 1
     6     3     4 ar
     7     3    21 1
     8     4     5 ar
     9     4    22 1
    10     5     6 ar
    11     5    23 1
    12     6    24 1
    13    18     7 1
    14    12     7 1
    15     8     7 1
    16     7    25 1
    17     9     8 1
    18     8    26 1
    19     8    27 1
    20    15     9 1
    21    10     9 1
    22     9    28 1
    23    19    10 1
    24    17    10 1
    25    14    11 1
    26    12    14 1
    27    13    14 1
    28    16    15 1
    29    15    29 1
    30    15    30 1
    31    16    17 1
    32    16    31 1
    33    16    32 1
    34    17    18 1
    35    17    33 1
    36    18    34 1
    37    18    35 1
    38    19    36 1
    39    19    37 1
    40    19    38 1
@<TRIPOS>SUBSTRUCTURE
     1 XOP         1 TEMP              0 ****  ****    0 ROOT
