@<TRIPOS>MOLECULE
XOP
   38    40     1     0     0
SMALL
bcc


@<TRIPOS>ATOM
      1 C1           0.0000     0.0000     0.0000 ca         1 XOP      -0.039500
      2 C2           1.3820     0.0000     0.0000 ca         1 XOP      -0.054500
      3 C3           2.0730     0.0000     1.1970 ca         1 XOP      -0.148000
      4 C4           1.3820     0.0010     2.3940 ca         1 XOP      -0.124000
      5 C5           0.0010     0.0020     2.3940 ca         1 XOP      -0.148000
      6 C6          -0.6910     0.0010     1.1970 ca         1 XOP      -0.054500
      7 C7          -0.2620    -0.0490    -4.1630 c3         1 XOP       0.281100
      8 C8           0.4640     1.1200    -4.8360 c3         1 XOP      -0.045400
      9 C9           1.9700     0.8130    -4.8780 c3         1 XOP       0.138000
     10 N            2.1510    -0.3820    -5.7460 n3         1 XOP      -0.555600
     11 O1          -1.6600     1.2750    -1.7010 o          1 XOP      -0.644500
     12 O2           0.1330    -0.1280    -2.7920 os         1 XOP      -0.484200
     13 O3          -1.9350    -1.2320    -1.6030 o          1 XOP      -0.644500
     14 P           -0.9080     0.0060    -1.5710 p5         1 XOP       0.681900
     15 C10          2.3970     0.3440    -3.4680 c3         1 XOP      -0.071400
     16 C11          2.1720    -1.1820    -3.4730 c3         1 XOP      -0.071400
     17 C12          1.6280    -1.4970    -4.9120 c3         1 XOP       0.138000
     18 C13          0.0980    -1.3580    -4.8720 c3         1 XOP      -0.045400
     19 C14          3.5690    -0.5870    -6.0690 c3         1 XOP       0.183100
     20 H2           1.9230    -0.0010    -0.9380 ha         1 XOP       0.111000
     21 H3           3.1570    -0.0000     1.1960 ha         1 XOP       0.081000
     22 H4           1.9240     0.0010     3.3320 ha         1 XOP       0.078000
     23 H5          -0.5410     0.0030     3.3320 ha         1 XOP       0.081000
     24 H6          -1.7740     0.0010     1.1980 ha         1 XOP       0.111000
     25 H7          -1.3320     0.1090    -4.2210 h1         1 XOP       0.015700
     26 H8           0.2940     2.0270    -4.2700 hc         1 XOP       0.019450
     27 H8A          0.0910     1.2460    -5.8460 hc         1 XOP       0.019450
     28 H9           2.5520     1.6590    -5.2210 h1         1 XOP       0.016700
     29 H10          1.7790     0.8140    -2.7120 hc         1 XOP       0.035700
     30 H10A         3.4420     0.5710    -3.2970 hc         1 XOP       0.035700
     31 H11          1.4400    -1.4580    -2.7240 hc         1 XOP       0.035700
     32 H11A         3.1060    -1.7020    -3.3000 hc         1 XOP       0.035700
     33 H12          1.9480    -2.4680    -5.2720 h1         1 XOP       0.016700
     34 H13         -0.2910    -1.3430    -5.8830 hc         1 XOP       0.019450
     35 H13A        -0.3280    -2.1940    -4.3310 hc         1 XOP       0.019450
     36 H14          4.1320    -0.7240    -5.1540 h1         1 XOP      -0.007633
     37 H14A         3.6740    -1.4670    -6.6920 h1         1 XOP      -0.007633
     38 H14B         3.9480     0.2790    -6.6000 h1         1 XOP      -0.007633
@<TRIPOS>BOND
     1     1     2 ar  
     2     1     6 ar  
     3     1    14 1   
     4     2     3 ar  
     5     2    20 1   
     6     3     4 ar  
     7     3    21 1   
     8     4     5 ar  
     9     4    22 1   
    10     5     6 ar  
    11     5    23 1   
    12     6    24 1   
    13     7     8 1   
    14     7    12 1   
    15     7    18 1   
    16     7    25 1   
    17     8     9 1   
    18     8    26 1   
    19     8    27 1   
    20     9    10 1   
    21     9    15 1   
    22     9    28 1   
    23    10    17 1   
    24    10    19 1   
    25    11    14 1   
    26    12    14 1   
    27    13    14 1   
    28    15    16 1   
    29    15    29 1   
    30    15    30 1   
    31    16    17 1   
    32    16    31 1   
    33    16    32 1   
    34    17    18 1   
    35    17    33 1   
    36    18    34 1   
    37    18    35 1   
    38    19    36 1   
    39    19    37 1   
    40    19    38 1   
@<TRIPOS>SUBSTRUCTURE
     1 XOP         1 TEMP              0 ****  ****    0 ROOT
