@<TRIPOS>MOLECULE
molecule
   29    30     1     0     0
SMALL
bcc


@<TRIPOS>ATOM
      1 C01          0.0000     0.0000     0.0000 ca         1 XOS      -0.077000
      2 C02          1.3980     0.0000     0.0000 ca         1 XOS      -0.109600
      3 C03          2.0900     0.0000     1.2080 ca         1 XOS      -0.079000
      4 C04          1.3830     0.0010     2.4110 ca         1 XOS      -0.117800
      5 C05         -0.0150     0.0010     2.3950 ca         1 XOS      -0.132000
      6 C06         -0.6950     0.0060     1.1930 ca         1 XOS      -0.170000
      7 C07          2.1070    -0.0040     3.6950 ce         1 XOS      -0.043200
      8 C08          1.4240    -0.0090     4.8510 cf         1 XOS      -0.183200
      9 C09          2.1480    -0.0150     6.1340 ca         1 XOS      -0.028800
     10 C10          1.4390    -0.0200     7.3390 ca         1 XOS      -0.122500
     11 C11          2.1210    -0.0260     8.5360 ca         1 XOS      -0.148500
     12 C12          3.5100    -0.0270     8.5480 ca         1 XOS       0.076100
     13 C13          4.2190    -0.0210     7.3530 ca         1 XOS      -0.148500
     14 C14          3.5460    -0.0210     6.1510 ca         1 XOS      -0.122500
     15 C15          2.1380    -0.0010    -1.2780 c          1 XOS       0.882200
     16 O01          4.1780    -0.0320     9.7310 oh         1 XOS      -0.528100
     17 O02          3.3520    -0.0020    -1.2760 o          1 XOS      -0.835300
     18 O03          1.4660    -0.0020    -2.4460 o          1 XOS      -0.835300
     19 H1          -0.5400    -0.0050    -0.9390 ha         1 XOS       0.155000
     20 H2           3.1690     0.0970     1.2140 ha         1 XOS       0.148000
     21 H3          -0.5670    -0.0030     3.3270 ha         1 XOS       0.107000
     22 H4          -1.7780     0.0140     1.1860 ha         1 XOS       0.108000
     23 H5           3.1900    -0.0040     3.7050 ha         1 XOS       0.126000
     24 H6           0.3410    -0.0090     4.8400 ha         1 XOS       0.135000
     25 H7           0.3560    -0.0190     7.3320 ha         1 XOS       0.137000
     26 H8           1.5720    -0.0300     9.4710 ha         1 XOS       0.131000
     27 H9           5.3020    -0.0230     7.3670 ha         1 XOS       0.131000
     28 H10          4.0990    -0.0160     5.2190 ha         1 XOS       0.137000
     29 H11          4.3310    -0.9230    10.0010 ho         1 XOS       0.409000
@<TRIPOS>BOND
     1    16    12 1
     2    13    12 ar
     3    13    14 ar
     4    12    11 ar
     5    11    10 ar
     6    14     9 ar
     7    10     9 ar
     8     9     8 1
     9     8     7 2
    10     7     4 1
    11     4     5 ar
    12     4     3 ar
    13     5     6 ar
    14     3     2 ar
    15     6     1 ar
    16     2     1 ar
    17     2    15 1
    18    17    15 1
    19    15    18 1
    20     1    19 1
    21     3    20 1
    22     5    21 1
    23     6    22 1
    24     7    23 1
    25     8    24 1
    26    10    25 1
    27    11    26 1
    28    13    27 1
    29    14    28 1
    30    16    29 1
@<TRIPOS>SUBSTRUCTURE
     1 XOS         1 TEMP              0 ****  ****    0 ROOT
