@<TRIPOS>MOLECULE
molecule
   40    43     1     0     0
SMALL
bcc


@<TRIPOS>ATOM
      1 CAL          0.0000     0.0000     0.0000 c3         1 XP0      -0.021200
      2 CAJ          1.5400     0.0000     0.0000 c3         1 XP0      -0.091400
      3 CAK          1.9450     0.0000     1.4920 c3         1 XP0      -0.091400
      4 CAM          0.6830    -0.5640     2.1920 c3         1 XP0      -0.021200
      5 NAW         -0.4330     0.0320     1.4130 nh         1 XP0      -0.567300
      6 C6          -1.6010    -0.6900     1.5890 ca         1 XP0       0.685200
      7 C5          -2.1940    -0.7960     2.8540 ca         1 XP0      -0.375400
      8 N1          -2.1890    -1.2940     0.5620 nb         1 XP0      -0.824000
      9 C2          -3.3080    -1.9870     0.7270 ca         1 XP0       0.977900
     10 NAA         -3.8830    -2.5980    -0.3750 nv         1 XP0      -1.012500
     11 N3          -3.8960    -2.1150     1.9040 nb         1 XP0      -0.822000
     12 C4          -3.3780    -1.5380     2.9890 ca         1 XP0       0.539800
     13 NAP         -3.7490    -1.4880     4.3070 na         1 XP0      -0.269100
     14 CAI         -2.8530    -0.7450     5.0250 cc         1 XP0      -0.080100
     15 CAS         -1.8720    -0.2900     4.1980 cd         1 XP0       0.008100
     16 CAC         -0.7510     0.5220     4.5630 ch         1 XP0      -0.097300
     17 CAB          0.1790     1.1710     4.8700 cg         1 XP0      -0.080000
     18 CAQ          0.9540     2.2070     5.0460 ca         1 XP0       0.025000
     19 CAG          0.7210     3.3670     5.6320 ca         1 XP0      -0.105000
     20 CAE          1.3840     4.3860     5.8410 ca         1 XP0      -0.137500
     21 CAD          2.8090     4.5600     5.4140 ca         1 XP0      -0.105000
     22 CAF          3.1680     3.4930     4.8230 ca         1 XP0      -0.137500
     23 CAH          2.3720     2.3320     4.6000 ca         1 XP0      -0.105000
     24 HAL1        -0.3730    -0.7690    -0.6660 h1         1 XP0       0.123950
     25 HAL2        -0.3730     0.9730    -0.2950 h1         1 XP0       0.123950
     26 HAJ1         1.9130    -0.9790    -0.2740 hc         1 XP0       0.050200
     27 HAJ2         1.9130     0.7540    -0.6830 hc         1 XP0       0.050200
     28 HAK1         2.6840     0.7690     1.6790 hc         1 XP0       0.050200
     29 HAK2         2.3280    -0.9730     1.7750 hc         1 XP0       0.050200
     30 HAM1         0.0270     0.2460     2.4880 h1         1 XP0       0.123950
     31 HAM2         0.9680    -1.1550     3.0540 h1         1 XP0       0.123950
     32 HAA1        -4.8780    -2.6000    -0.4830 hn         1 XP0       0.448300
     33 HAA2        -3.3020    -3.0030    -1.0820 hn         1 XP0       0.448300
     34 HAP         -4.5550    -1.9250     4.7070 hn         1 XP0       0.310700
     35 HAI         -2.8810    -0.5750     6.0950 h4         1 XP0       0.182000
     36 HAG         -0.3370     3.5570     5.7690 ha         1 XP0       0.116000
     37 HAH          2.7310     1.6470     3.8410 ha         1 XP0       0.116000
     38 HAE          0.9070     5.2030     6.3700 ha         1 XP0       0.117500
     39 HAD          3.4140     5.4470     5.5610 ha         1 XP0       0.151000
     40 HAF          4.1880     3.4610     4.4600 ha         1 XP0       0.117500
@<TRIPOS>BOND
     1     1     2 1
     2     1     5 1
     3     2     3 1
     4     3     4 1
     5     4     5 1
     6     5     6 1
     7     6     7 ar
     8     6     8 ar
     9     7    12 ar
    10     7    15 1
    11     8     9 ar
    12     9    10 1
    13     9    11 ar
    14    11    12 ar
    15    12    13 1
    16    13    14 1
    17    14    15 2
    18    15    16 1
    19    16    17 3
    20    17    18 1
    21    18    19 ar
    22    18    23 ar
    23    19    20 ar
    24    20    21 ar
    25    21    22 ar
    26    22    23 ar
    27     1    24 1
    28     1    25 1
    29     2    26 1
    30     2    27 1
    31     3    28 1
    32     3    29 1
    33     4    30 1
    34     4    31 1
    35    10    32 1
    36    10    33 1
    37    13    34 1
    38    14    35 1
    39    19    36 1
    40    23    37 1
    41    20    38 1
    42    21    39 1
    43    22    40 1
@<TRIPOS>SUBSTRUCTURE
     1 XP0         1 TEMP              0 ****  ****    0 ROOT
