@<TRIPOS>MOLECULE
XP0
   40    44     1     0     0
SMALL
bcc


@<TRIPOS>ATOM
      1 CAL          0.0000     0.0000     0.0000 c3         1 XP0      -0.133000
      2 CAJ          1.5400     0.0000     0.0000 c3         1 XP0      -0.105000
      3 CAK          1.9450     0.0000     1.4920 c3         1 XP0      -0.113000
      4 CAM          0.6830    -0.5640     2.1920 c3         1 XP0      -0.462000
      5 NAW         -0.4330     0.0320     1.4130 nx         1 XP0       0.159000
      6 C6          -1.6010    -0.6900     1.5890 c2         1 XP0       0.071000
      7 C5          -2.1940    -0.7960     2.8540 c2         1 XP0      -0.241000
      8 N1          -2.1890    -1.2940     0.5620 n2         1 XP0      -0.190000
      9 C2          -3.3080    -1.9870     0.7270 c2         1 XP0       0.021000
     10 NAA         -3.8830    -2.5980    -0.3750 nv         1 XP0       0.063000
     11 N3          -3.8960    -2.1150     1.9040 n2         1 XP0      -0.174000
     12 C4          -3.3780    -1.5380     2.9890 c2         1 XP0      -0.086000
     13 NAP         -3.7490    -1.4880     4.3070 na         1 XP0       0.367000
     14 CAI         -2.8530    -0.7450     5.0250 c2         1 XP0      -0.239000
     15 CAS         -1.8720    -0.2900     4.1980 c2         1 XP0       0.010000
     16 CAC         -0.7510     0.5220     4.5630 c1         1 XP0      -0.063000
     17 CAB          0.1790     1.1710     4.8700 c1         1 XP0      -0.085000
     18 CAQ          0.9540     2.2070     5.0460 ca         1 XP0       0.055000
     19 CAG          0.7210     3.3670     5.6320 ca         1 XP0      -0.088500
     20 CAE          1.3840     4.3860     5.8410 ca         1 XP0      -0.110000
     21 CAD          2.8090     4.5600     5.4140 ca         1 XP0      -0.080000
     22 CAF          3.1680     3.4930     4.8230 ca         1 XP0      -0.110000
     23 CAH          2.3720     2.3320     4.6000 ca         1 XP0      -0.088500
     24 HAL1        -0.3730    -0.7690    -0.6660 hx         1 XP0       0.076500
     25 HAL2        -0.3730     0.9730    -0.2950 hx         1 XP0       0.076500
     26 HAJ1         1.9130    -0.9790    -0.2740 hc         1 XP0       0.057000
     27 HAJ2         1.9130     0.7540    -0.6830 hc         1 XP0       0.057000
     28 HAK1         2.6840     0.7690     1.6790 hc         1 XP0       0.068500
     29 HAK2         2.3280    -0.9730     1.7750 hc         1 XP0       0.068500
     30 HAM1         0.0270     0.2460     2.4880 DU         1 XP0       0.191000
     31 HAM2         0.9680    -1.1550     3.0540 hx         1 XP0       0.183000
     32 HAA1        -4.8780    -2.6000    -0.4830 hn         1 XP0       0.070000
     33 HAA2        -3.3020    -3.0030    -1.0820 hn         1 XP0       0.070000
     34 HAP         -4.5550    -1.9250     4.7070 hn         1 XP0       0.071000
     35 HAI         -2.8810    -0.5750     6.0950 h4         1 XP0       0.152000
     36 HAG         -0.3370     3.5570     5.7690 ha         1 XP0       0.088500
     37 HAH          2.7310     1.6470     3.8410 ha         1 XP0       0.088500
     38 HAE          0.9070     5.2030     6.3700 ha         1 XP0       0.090000
     39 HAD          3.4140     5.4470     5.5610 ha         1 XP0       0.122000
     40 HAF          4.1880     3.4610     4.4600 ha         1 XP0       0.090000
@<TRIPOS>BOND
     1     1     2 1   
     2     1     5 1   
     3     1    24 1   
     4     1    25 1   
     5     2     3 1   
     6     2    26 1   
     7     2    27 1   
     8     3     4 1   
     9     3    28 1   
    10     3    29 1   
    11     4     5 1   
    12     4    30 1   
    13     4    31 1   
    14     5     6 1   
    15     5    30 1   
    16     6     7 1   
    17     6     8 1   
    18     7    12 1   
    19     7    15 1   
    20     8     9 1   
    21     9    10 1   
    22     9    11 1   
    23    10    32 1   
    24    10    33 1   
    25    11    12 1   
    26    12    13 1   
    27    13    14 1   
    28    13    34 1   
    29    14    15 1   
    30    14    35 1   
    31    15    16 1   
    32    16    17 1   
    33    17    18 1   
    34    18    19 1   
    35    18    23 1   
    36    19    20 1   
    37    19    36 1   
    38    20    21 1   
    39    20    38 1   
    40    21    22 1   
    41    21    39 1   
    42    22    23 1   
    43    22    40 1   
    44    23    37 1   
@<TRIPOS>SUBSTRUCTURE
     1 XP0         1 TEMP              0 ****  ****    0 ROOT
