@<TRIPOS>MOLECULE
molecule
   22    22     1     0     0
SMALL
bcc


@<TRIPOS>ATOM
      1 CAG          0.0000     0.0000     0.0000 c3         1 XP1       0.237100
      2 NAF          1.4740     0.0000     0.0000 nh         1 XP1      -0.746000
      3 CAK          2.1680     0.0000     1.3150 c3         1 XP1       0.237100
      4 CAE          2.1240    -0.0170    -1.2070 ca         1 XP1       0.185600
      5 CAJ          3.5150    -0.0410    -1.2830 ca         1 XP1      -0.246000
      6 CAI          4.1580    -0.0520    -2.5280 ca         1 XP1      -0.047500
      7 CAD          3.3970    -0.0600    -3.7120 ca         1 XP1      -0.164600
      8 CAC          4.1100    -0.0880    -5.0600 c          1 XP1       0.786200
      9 OAH          3.4570    -0.0500    -6.1050 o          1 XP1      -0.811300
     10 CAA          1.9950    -0.0490    -3.6690 ca         1 XP1      -0.047500
     11 CAB          1.3770    -0.0150    -2.4110 ca         1 XP1      -0.246000
     12 OXT          5.8570    -0.5990    -4.8590 o          1 XP1      -0.811300
     13 HAG1        -0.3610     0.8760    -0.5250 h1         1 XP1       0.025533
     14 HAG2        -0.3610    -0.8930    -0.4960 h1         1 XP1       0.025533
     15 HAG3        -0.3610     0.0170     1.0210 h1         1 XP1       0.025533
     16 HAK1         2.7690    -0.8970     1.4060 h1         1 XP1       0.025533
     17 HAK2         2.8070     0.8720     1.3860 h1         1 XP1       0.025533
     18 HAK3         1.4330     0.0250     2.1110 h1         1 XP1       0.025533
     19 HAJ          4.1030    -0.0350    -0.3730 ha         1 XP1       0.104500
     20 HAB          0.2950    -0.0060    -2.3570 ha         1 XP1       0.104500
     21 HAI          5.2400    -0.0710    -2.5790 ha         1 XP1       0.156000
     22 HAA          1.4080    -0.0520    -4.5790 ha         1 XP1       0.156000
@<TRIPOS>BOND
     1     1     2 1
     2     2     3 1
     3     2     4 1
     4     4     5 ar
     5     4    11 ar
     6     5     6 ar
     7     6     7 ar
     8     7     8 1
     9     7    10 ar
    10     8     9 1
    11    10    11 ar
    12     8    12 1
    13     1    13 1
    14     1    14 1
    15     1    15 1
    16     3    16 1
    17     3    17 1
    18     3    18 1
    19     5    19 1
    20    11    20 1
    21     6    21 1
    22    10    22 1
@<TRIPOS>SUBSTRUCTURE
     1 XP1         1 TEMP              0 ****  ****    0 ROOT
