@<TRIPOS>MOLECULE
XP4
   99    98     1     0     0
SMALL
bcc


@<TRIPOS>ATOM
      1 O1          2.2940   -1.5230    1.2600 o         1 XP4     -0.915167
      2 O2          3.8800    0.4640    1.1920 o         1 XP4     -0.915167
      3 P1          3.6390   -0.9800    0.8730 p5        1 XP4      1.323900
      4 O3          4.8160   -1.9160    1.0430 o         1 XP4     -0.915167
      5 O4          3.5690   -0.9730   -0.8730 os        1 XP4     -0.564200
      6 C1          2.3630   -0.6290   -1.4030 c3        1 XP4      0.234400
      7 C2          1.9630   -1.5080   -2.6200 c3        1 XP4      0.091100
      8 C3          3.1000   -1.7900   -3.6000 c3        1 XP4      0.144400
      9 O5          3.9350   -2.8320   -3.1050 os        1 XP4     -0.457900
     10 C4          5.2270   -2.4830   -2.7490 c         1 XP4      0.697100
     11 O6          5.8100   -1.6990   -3.5100 o         1 XP4     -0.613000
     12 C5          5.6870   -3.1570   -1.5160 c3        1 XP4     -0.218400
     13 C6          7.1820   -3.1100   -1.3210 c3        1 XP4     -0.037400
     14 C7          7.5100   -3.3400    0.1400 c3        1 XP4     -0.115400
     15 C8          8.9600   -3.0340    0.4390 c3        1 XP4     -0.064400
     16 C9          9.2620   -3.2320    1.9100 c3        1 XP4     -0.082400
     17 C10        10.6990   -2.8820    2.2350 c3        1 XP4     -0.076400
     18 C11        10.9940   -3.0770    3.7070 c3        1 XP4     -0.080400
     19 C12        12.4280   -2.7190    4.0360 c3        1 XP4     -0.077400
     20 C13        12.7200   -2.9120    5.5080 c3        1 XP4     -0.079400
     21 C14        14.1530   -2.5510    5.8380 c3        1 XP4     -0.078400
     22 C15        14.4440   -2.7450    7.3110 c3        1 XP4     -0.079400
     23 C16        15.8760   -2.3820    7.6430 c3        1 XP4     -0.080400
     24 C17        16.1710   -2.5730    9.1080 c3        1 XP4     -0.091100
     25 O7          1.4580   -2.7380   -2.0680 os        1 XP4     -0.348900
     26 C18         0.6140   -3.4890   -2.8020 c         1 XP4      0.630100
     27 O8          0.2260   -3.1180   -3.9210 o         1 XP4     -0.623000
     28 C19         0.2390   -4.7590   -2.0900 c3        1 XP4     -0.139400
     29 C20        -1.1800   -5.1700   -2.4090 c3        1 XP4     -0.074400
     30 C21        -1.5060   -6.5130   -1.7900 c3        1 XP4     -0.079400
     31 C22        -2.9330   -6.9210   -2.0870 c3        1 XP4     -0.077400
     32 C23        -3.2590   -8.2660   -1.4740 c3        1 XP4     -0.079400
     33 C24        -4.6860   -8.6760   -1.7690 c3        1 XP4     -0.078400
     34 C25        -5.0110  -10.0210   -1.1570 c3        1 XP4     -0.079400
     35 C26        -6.4380  -10.4310   -1.4530 c3        1 XP4     -0.078400
     36 C27        -6.7630  -11.7770   -0.8420 c3        1 XP4     -0.079400
     37 C28        -8.1900  -12.1870   -1.1380 c3        1 XP4     -0.078400
     38 C29        -8.5140  -13.5330   -0.5270 c3        1 XP4     -0.079400
     39 C30        -9.9410  -13.9440   -0.8230 c3        1 XP4     -0.080400
     40 C31       -10.2680  -15.2840   -0.2160 c3        1 XP4     -0.091100
     41 H2          2.3940    0.4190   -1.8390 h1        1 XP4      0.012700
     42 H3          1.5430   -0.7020   -0.6300 h1        1 XP4      0.012700
     43 H4          1.1330   -1.0020   -3.1870 h1        1 XP4      0.023700
     44 H5          2.6850   -2.1820   -4.5690 h1        1 XP4      0.042700
     45 H6          3.6800   -0.8470   -3.7720 h1        1 XP4      0.042700
     46 H7          5.2950   -4.2010   -1.4700 hc        1 XP4      0.152700
     47 H8          5.1650   -2.5740   -0.6350 hc        1 XP4      0.152700
     48 H9          7.6940   -3.8770   -1.9610 hc        1 XP4      0.013200
     49 H10         7.5640   -2.1030   -1.6410 hc        1 XP4      0.013200
     50 H11         7.2870   -4.4050    0.4110 hc        1 XP4      0.090200
     51 H12         6.8220   -2.6880    0.7660 hc        1 XP4      0.090200
     52 H13         9.1830   -1.9720    0.1530 hc        1 XP4      0.016700
     53 H14         9.6320   -3.6890   -0.1750 hc        1 XP4      0.016700
     54 H15         8.5660   -2.5920    2.5150 hc        1 XP4      0.048700
     55 H16         9.0620   -4.2980    2.1940 hc        1 XP4      0.048700
     56 H17        10.8960   -1.8150    1.9510 hc        1 XP4      0.028700
     57 H18        11.3920   -3.5190    1.6250 hc        1 XP4      0.028700
     58 H19        10.2970   -2.4400    4.3130 hc        1 XP4      0.040700
     59 H20        10.7980   -4.1440    3.9910 hc        1 XP4      0.040700
     60 H21        13.1240   -3.3540    3.4270 hc        1 XP4      0.033700
     61 H22        12.6210   -1.6510    3.7510 hc        1 XP4      0.033700
     62 H23        12.0220   -2.2770    6.1150 hc        1 XP4      0.039700
     63 H24        12.5260   -3.9800    5.7920 hc        1 XP4      0.039700
     64 H25        14.3450   -1.4830    5.5540 hc        1 XP4      0.036200
     65 H26        14.8500   -3.1850    5.2300 hc        1 XP4      0.036200
     66 H27        14.2520   -3.8130    7.5950 hc        1 XP4      0.038700
     67 H28        13.7460   -2.1100    7.9180 hc        1 XP4      0.038700
     68 H29        16.5730   -3.0160    7.0330 hc        1 XP4      0.036200
     69 H30        16.0670   -1.3140    7.3560 hc        1 XP4      0.036200
     70 H31        15.5030   -1.9310    9.7310 hc        1 XP4      0.028033
     71 H32        16.0100   -3.6370    9.4070 hc        1 XP4      0.028033
     72 H33        17.2310   -2.3000    9.3320 hc        1 XP4      0.028033
     73 H34         0.9640   -5.5500   -2.4180 hc        1 XP4      0.084200
     74 H35         0.3750   -4.6090   -0.9850 hc        1 XP4      0.084200
     75 H36        -1.8900   -4.3930   -2.0210 hc        1 XP4      0.047200
     76 H37        -1.3160   -5.2150   -3.5220 hc        1 XP4      0.047200
     77 H38        -0.8020   -7.2910   -2.1870 hc        1 XP4      0.040700
     78 H39        -1.3510   -6.4610   -0.6800 hc        1 XP4      0.040700
     79 H40        -3.0880   -6.9660   -3.1970 hc        1 XP4      0.036700
     80 H41        -3.6360   -6.1450   -1.6860 hc        1 XP4      0.036700
     81 H42        -2.5550   -9.0430   -1.8740 hc        1 XP4      0.039200
     82 H43        -3.1030   -8.2200   -0.3640 hc        1 XP4      0.039200
     83 H44        -4.8420   -8.7200   -2.8800 hc        1 XP4      0.037200
     84 H45        -5.3900   -7.9000   -1.3680 hc        1 XP4      0.037200
     85 H46        -4.3070  -10.7970   -1.5580 hc        1 XP4      0.039200
     86 H47        -4.8560   -9.9760   -0.0470 hc        1 XP4      0.039200
     87 H48        -7.1430   -9.6550   -1.0520 hc        1 XP4      0.037700
     88 H49        -6.5940  -10.4750   -2.5640 hc        1 XP4      0.037700
     89 H50        -6.0580  -12.5520   -1.2430 hc        1 XP4      0.038700
     90 H51        -6.6070  -11.7320    0.2690 hc        1 XP4      0.038700
     91 H52        -8.8940  -11.4110   -0.7370 hc        1 XP4      0.038200
     92 H53        -8.3450  -12.2310   -2.2490 hc        1 XP4      0.038200
     93 H54        -8.3590  -13.4880    0.5830 hc        1 XP4      0.039200
     94 H55        -7.8090  -14.3080   -0.9280 hc        1 XP4      0.039200
     95 H56       -10.0940  -13.9860   -1.9340 hc        1 XP4      0.037200
     96 H57       -10.6440  -13.1670   -0.4230 hc        1 XP4      0.037200
     97 H58        -9.5930  -16.0760   -0.6210 hc        1 XP4      0.029700
     98 H59       -10.1440  -15.2540    0.8940 hc        1 XP4      0.029700
     99 H60       -11.3230  -15.5680   -0.4460 hc        1 XP4      0.029700
@<TRIPOS>BOND
     1    1    3 1   
     2    2    3 1   
     3    3    4 1   
     4    3    5 1   
     5    5    6 1   
     6    6    7 1   
     7    6   41 1   
     8    6   42 1   
     9    7    8 1   
    10    7   25 1   
    11    7   43 1   
    12    8    9 1   
    13    8   44 1   
    14    8   45 1   
    15    9   10 1   
    16   10   11 2   
    17   10   12 1   
    18   12   13 1   
    19   12   46 1   
    20   12   47 1   
    21   13   14 1   
    22   13   48 1   
    23   13   49 1   
    24   14   15 1   
    25   14   50 1   
    26   14   51 1   
    27   15   16 1   
    28   15   52 1   
    29   15   53 1   
    30   16   17 1   
    31   16   54 1   
    32   16   55 1   
    33   17   18 1   
    34   17   56 1   
    35   17   57 1   
    36   18   19 1   
    37   18   58 1   
    38   18   59 1   
    39   19   20 1   
    40   19   60 1   
    41   19   61 1   
    42   20   21 1   
    43   20   62 1   
    44   20   63 1   
    45   21   22 1   
    46   21   64 1   
    47   21   65 1   
    48   22   23 1   
    49   22   66 1   
    50   22   67 1   
    51   23   24 1   
    52   23   68 1   
    53   23   69 1   
    54   24   70 1   
    55   24   71 1   
    56   24   72 1   
    57   25   26 1   
    58   26   27 2   
    59   26   28 1   
    60   28   29 1   
    61   28   73 1   
    62   28   74 1   
    63   29   30 1   
    64   29   75 1   
    65   29   76 1   
    66   30   31 1   
    67   30   77 1   
    68   30   78 1   
    69   31   32 1   
    70   31   79 1   
    71   31   80 1   
    72   32   33 1   
    73   32   81 1   
    74   32   82 1   
    75   33   34 1   
    76   33   83 1   
    77   33   84 1   
    78   34   35 1   
    79   34   85 1   
    80   34   86 1   
    81   35   36 1   
    82   35   87 1   
    83   35   88 1   
    84   36   37 1   
    85   36   89 1   
    86   36   90 1   
    87   37   38 1   
    88   37   91 1   
    89   37   92 1   
    90   38   39 1   
    91   38   93 1   
    92   38   94 1   
    93   39   40 1   
    94   39   95 1   
    95   39   96 1   
    96   40   97 1   
    97   40   98 1   
    98   40   99 1   
@<TRIPOS>SUBSTRUCTURE
     1 XP4         1 TEMP              0 ****  ****    0 ROOT
