@<TRIPOS>MOLECULE
molecule
   99    98     1     0     0
SMALL
bcc


@<TRIPOS>ATOM
      1 O1           0.0000     0.0000     0.0000 o          1 XP4      -0.909167
      2 O2           2.0600     1.2630    -0.7270 o          1 XP4      -0.909167
      3 P1           1.5450     0.0000     0.0000 p5         1 XP4       1.144900
      4 O3           2.0820     0.0000     1.5180 o          1 XP4      -0.909167
      5 O4           2.0820    -1.3140    -0.7590 os         1 XP4      -0.521200
      6 C1           1.4810    -1.3170    -2.0550 c3         1 XP4       0.143400
      7 C2           1.9510    -2.5470    -2.8340 c3         1 XP4       0.144100
      8 C3           3.4810    -2.5710    -2.8710 c3         1 XP4       0.172400
      9 O5           4.0000    -2.5100    -1.5160 os         1 XP4      -0.329900
     10 C4           5.3250    -2.5190    -1.3050 c          1 XP4       0.647100
     11 O6           6.0860    -2.5780    -2.2410 o          1 XP4      -0.629000
     12 C5           5.8640    -2.4550     0.1020 c3         1 XP4      -0.125400
     13 C6           7.3920    -2.4800     0.0650 c3         1 XP4      -0.071400
     14 C7           7.9390    -2.4150     1.4920 c3         1 XP4      -0.084400
     15 C8           9.4680    -2.4400     1.4540 c3         1 XP4      -0.080400
     16 C9          10.0140    -2.3750     2.8810 c3         1 XP4      -0.082400
     17 C10         11.5450    -2.4000     2.8440 c3         1 XP4      -0.082400
     18 C11         12.0910    -2.3350     4.2720 c3         1 XP4      -0.082400
     19 C12         13.6200    -2.3590     4.2340 c3         1 XP4      -0.082400
     20 C13         14.1660    -2.2940     5.6620 c3         1 XP4      -0.082400
     21 C14         15.6960    -2.3190     5.6240 c3         1 XP4      -0.082400
     22 C15         16.2420    -2.2540     7.0520 c3         1 XP4      -0.081400
     23 C16         17.7710    -2.2790     7.0140 c3         1 XP4      -0.084400
     24 C17         18.3180    -2.2140     8.4410 c3         1 XP4      -0.092100
     25 O7           1.4640    -3.7480    -2.1810 os         1 XP4      -0.404900
     26 C18          0.2740    -4.2640    -2.5270 c          1 XP4       0.645100
     27 O8          -0.3920    -3.7290    -3.3800 o          1 XP4      -0.581000
     28 C19         -0.2320    -5.5120    -1.8490 c3         1 XP4      -0.127400
     29 C20         -1.6000    -5.8850    -2.4230 c3         1 XP4      -0.071400
     30 C21         -2.1140    -7.1510    -1.7340 c3         1 XP4      -0.084400
     31 C22         -3.4830    -7.5230    -2.3090 c3         1 XP4      -0.080400
     32 C23         -3.9960    -8.7900    -1.6210 c3         1 XP4      -0.082400
     33 C24         -5.3650    -9.1630    -2.1940 c3         1 XP4      -0.082400
     34 C25         -5.8780   -10.4290    -1.5070 c3         1 XP4      -0.082400
     35 C26         -7.2470   -10.8020    -2.0810 c3         1 XP4      -0.082400
     36 C27         -7.7600   -12.0680    -1.3920 c3         1 XP4      -0.082400
     37 C28         -9.1290   -12.4410    -1.9660 c3         1 XP4      -0.082400
     38 C29         -9.6430   -13.7080    -1.2790 c3         1 XP4      -0.082400
     39 C30        -11.0110   -14.0800    -1.8520 c3         1 XP4      -0.084400
     40 C31        -11.5250   -15.3470    -1.1640 c3         1 XP4      -0.092100
     41 H2           0.4030    -1.3460    -1.9520 h1         1 XP4       0.057200
     42 H3           1.7680    -0.4190    -2.5890 h1         1 XP4       0.057200
     43 H4           1.5660    -2.5030    -3.8450 h1         1 XP4       0.044700
     44 H5           3.8420    -1.7190    -3.4350 h1         1 XP4       0.031700
     45 H6           3.8160    -3.4860    -3.3450 h1         1 XP4       0.031700
     46 H7           5.5290    -1.5400     0.5760 hc         1 XP4       0.092200
     47 H8           5.5030    -3.3070     0.6660 hc         1 XP4       0.092200
     48 H9           7.7270    -3.3940    -0.4090 hc         1 XP4       0.044700
     49 H10          7.7530    -1.6280    -0.4990 hc         1 XP4       0.044700
     50 H11          7.6040    -1.5000     1.9650 hc         1 XP4       0.046700
     51 H12          7.5780    -3.2660     2.0560 hc         1 XP4       0.046700
     52 H13          9.8030    -3.3550     0.9800 hc         1 XP4       0.036200
     53 H14          9.8290    -1.5880     0.8900 hc         1 XP4       0.036200
     54 H15          9.6530    -3.2260     3.4450 hc         1 XP4       0.042700
     55 H16          9.6800    -1.4590     3.3550 hc         1 XP4       0.042700
     56 H17         11.8790    -3.3150     2.3710 hc         1 XP4       0.037200
     57 H18         11.9060    -1.5490     2.2800 hc         1 XP4       0.037200
     58 H19         11.7300    -3.1860     4.8360 hc         1 XP4       0.041700
     59 H20         11.7560    -1.4200     4.7450 hc         1 XP4       0.041700
     60 H21         13.9550    -3.2750     3.7600 hc         1 XP4       0.038200
     61 H22         13.9810    -1.5080     3.6700 hc         1 XP4       0.038200
     62 H23         13.8050    -3.1460     6.2260 hc         1 XP4       0.041200
     63 H24         13.8310    -1.3790     6.1350 hc         1 XP4       0.041200
     64 H25         16.0310    -3.2330     5.1500 hc         1 XP4       0.039200
     65 H26         16.0570    -1.4670     5.0600 hc         1 XP4       0.039200
     66 H27         15.8810    -3.1060     7.6160 hc         1 XP4       0.040700
     67 H28         15.9080    -1.3400     7.5260 hc         1 XP4       0.040700
     68 H29         18.1330    -1.4280     6.4500 hc         1 XP4       0.038200
     69 H30         18.1060    -3.1940     6.5400 hc         1 XP4       0.038200
     70 H31         19.4010    -2.2320     8.4140 hc         1 XP4       0.030033
     71 H32         17.9570    -3.0660     9.0050 hc         1 XP4       0.030033
     72 H33         17.9840    -1.2990     8.9150 hc         1 XP4       0.030033
     73 H34         -0.3230    -5.3320    -0.7850 hc         1 XP4       0.066700
     74 H35          0.4650    -6.3230    -2.0200 hc         1 XP4       0.066700
     75 H36         -2.2970    -5.0730    -2.2520 hc         1 XP4       0.056700
     76 H37         -1.5090    -6.0650    -3.4870 hc         1 XP4       0.056700
     77 H38         -2.2050    -6.9710    -0.6700 hc         1 XP4       0.037700
     78 H39         -1.4170    -7.9630    -1.9050 hc         1 XP4       0.037700
     79 H40         -3.3910    -7.7020    -3.3730 hc         1 XP4       0.042700
     80 H41         -4.1790    -6.7120    -2.1370 hc         1 XP4       0.042700
     81 H42         -4.0860    -8.6120    -0.5560 hc         1 XP4       0.038700
     82 H43         -3.2990    -9.6020    -1.7930 hc         1 XP4       0.038700
     83 H44         -6.0610    -8.3510    -2.0220 hc         1 XP4       0.040700
     84 H45         -5.2740    -9.3410    -3.2590 hc         1 XP4       0.040700
     85 H46         -5.9700   -10.2500    -0.4420 hc         1 XP4       0.039700
     86 H47         -5.1810   -11.2400    -1.6780 hc         1 XP4       0.039700
     87 H48         -7.9430    -9.9900    -1.9100 hc         1 XP4       0.040700
     88 H49         -7.1550   -10.9820    -3.1450 hc         1 XP4       0.040700
     89 H50         -7.8520   -11.8880    -0.3280 hc         1 XP4       0.040200
     90 H51         -7.0640   -12.8800    -1.5630 hc         1 XP4       0.040200
     91 H52         -9.8260   -11.6300    -1.7950 hc         1 XP4       0.040200
     92 H53         -9.0370   -12.6200    -3.0310 hc         1 XP4       0.040200
     93 H54         -9.7340   -13.5290    -0.2140 hc         1 XP4       0.040200
     94 H55         -8.9470   -14.5200    -1.4510 hc         1 XP4       0.040200
     95 H56        -10.9200   -14.2590    -2.9160 hc         1 XP4       0.039200
     96 H57        -11.7080   -13.2690    -1.6800 hc         1 XP4       0.039200
     97 H58        -12.4940   -15.6100    -1.5710 hc         1 XP4       0.030033
     98 H59        -11.6160   -15.1690    -0.1000 hc         1 XP4       0.030033
     99 H60        -10.8290   -16.1590    -1.3360 hc         1 XP4       0.030033
@<TRIPOS>BOND
     1     1     3 1
     2     2     3 1
     3     3     4 1
     4     3     5 1
     5     5     6 1
     6     6     7 1
     7     6    41 1
     8     6    42 1
     9     7     8 1
    10     7    25 1
    11     7    43 1
    12     8     9 1
    13     8    44 1
    14     8    45 1
    15     9    10 1
    16    10    11 2
    17    10    12 1
    18    12    13 1
    19    12    46 1
    20    12    47 1
    21    13    14 1
    22    13    48 1
    23    13    49 1
    24    14    15 1
    25    14    50 1
    26    14    51 1
    27    15    16 1
    28    15    52 1
    29    15    53 1
    30    16    17 1
    31    16    54 1
    32    16    55 1
    33    17    18 1
    34    17    56 1
    35    17    57 1
    36    18    19 1
    37    18    58 1
    38    18    59 1
    39    19    20 1
    40    19    60 1
    41    19    61 1
    42    20    21 1
    43    20    62 1
    44    20    63 1
    45    21    22 1
    46    21    64 1
    47    21    65 1
    48    22    23 1
    49    22    66 1
    50    22    67 1
    51    23    24 1
    52    23    68 1
    53    23    69 1
    54    24    70 1
    55    24    71 1
    56    24    72 1
    57    25    26 1
    58    26    27 2
    59    26    28 1
    60    28    29 1
    61    28    73 1
    62    28    74 1
    63    29    30 1
    64    29    75 1
    65    29    76 1
    66    30    31 1
    67    30    77 1
    68    30    78 1
    69    31    32 1
    70    31    79 1
    71    31    80 1
    72    32    33 1
    73    32    81 1
    74    32    82 1
    75    33    34 1
    76    33    83 1
    77    33    84 1
    78    34    35 1
    79    34    85 1
    80    34    86 1
    81    35    36 1
    82    35    87 1
    83    35    88 1
    84    36    37 1
    85    36    89 1
    86    36    90 1
    87    37    38 1
    88    37    91 1
    89    37    92 1
    90    38    39 1
    91    38    93 1
    92    38    94 1
    93    39    40 1
    94    39    95 1
    95    39    96 1
    96    40    97 1
    97    40    98 1
    98    40    99 1
@<TRIPOS>SUBSTRUCTURE
     1 XP4         1 TEMP              0 ****  ****    0 ROOT
