@<TRIPOS>MOLECULE
molecule
   76    75     1     0     0
SMALL
bcc


@<TRIPOS>ATOM
      1 O1           0.0000     0.0000     0.0000 o          1 XP5      -0.803500
      2 O2           2.0160    -1.3160    -0.7580 o          1 XP5      -0.803500
      3 P1           1.4790     0.0000     0.0000 p5         1 XP5       1.343800
      4 O3           2.0170     0.0000     1.5180 os         1 XP5      -0.575200
      5 C1           1.6350    -0.9860     2.4790 c3         1 XP5       0.216400
      6 C2           2.2230    -0.6230     3.8440 c3         1 XP5       0.080800
      7 N1           1.7670    -1.5930     4.8480 n4         1 XP5      -0.574800
      8 C3           2.2700    -2.9290     4.5020 c3         1 XP5       0.094433
      9 C4           2.2760    -1.2060     6.1710 c3         1 XP5       0.094433
     10 C5           0.2990    -1.6150     4.8750 c3         1 XP5       0.094433
     11 O4           2.0170     1.3130    -0.7590 os         1 XP5      -0.585200
     12 C6           1.6350     1.6510    -2.0950 c3         1 XP5       0.212400
     13 C8           2.1890     4.0290    -1.5650 c3         1 XP5       0.160400
     14 O5           2.5600     3.5980    -0.2290 os         1 XP5      -0.369900
     15 C9           2.3280     4.4570     0.7750 c          1 XP5       0.628100
     16 O6           1.7480     5.4950     0.5600 o          1 XP5      -0.573000
     17 C10          2.7910     4.1280     2.1710 c3         1 XP5      -0.125400
     18 C11          2.5220     5.3200     3.0920 c3         1 XP5      -0.074400
     19 C12          2.9930     4.9850     4.5090 c3         1 XP5      -0.082400
     20 C13          2.7240     6.1780     5.4310 c3         1 XP5      -0.081400
     21 C14          3.1940     5.8430     6.8470 c3         1 XP5      -0.084400
     22 C15          2.9250     7.0350     7.7690 c3         1 XP5      -0.092100
     23 O7           3.5630     1.9350    -4.7070 o          1 XP5      -0.561000
     24 O8           3.8340     2.5650    -2.6060 os         1 XP5      -0.405900
     25 C18          5.7660     1.7320    -3.8970 c3         1 XP5      -0.125400
     26 C19          6.0410     1.2120    -5.3090 c3         1 XP5      -0.072400
     27 C20          7.5230     0.8540    -5.4410 c3         1 XP5      -0.084400
     28 C21          7.7990     0.3340    -6.8530 c3         1 XP5      -0.080400
     29 C22          9.2800    -0.0250    -6.9850 c3         1 XP5      -0.084400
     30 C23          9.5550    -0.5450    -8.3970 c3         1 XP5      -0.092100
     31 CAM          2.4180     2.8840    -2.5530 c3         1 XP5       0.140100
     32 H11C         2.0090    -1.9550     2.1710 h1         1 XP5       0.045700
     33 H12C         0.5540    -1.0220     2.5490 h1         1 XP5       0.045700
     34 H21C         3.3040    -0.6420     3.7880 hx         1 XP5       0.102200
     35 H22C         1.8940     0.3700     4.1260 hx         1 XP5       0.102200
     36 H31C         1.6400    -3.3650     3.7360 hx         1 XP5       0.095700
     37 H32C         2.2570    -3.5590     5.3820 hx         1 XP5       0.095700
     38 H33C         3.2850    -2.8470     4.1310 hx         1 XP5       0.095700
     39 H41C         1.8520    -0.2510     6.4550 hx         1 XP5       0.095700
     40 H42C         1.9950    -1.9570     6.9000 hx         1 XP5       0.095700
     41 H43C         3.3550    -1.1250     6.1330 hx         1 XP5       0.095700
     42 H51C        -0.0800    -0.6100     4.7360 hx         1 XP5       0.095700
     43 H52C        -0.0680    -2.2530     4.0800 hx         1 XP5       0.095700
     44 H53C        -0.0390    -1.9990     5.8300 hx         1 XP5       0.095700
     45 H61C         1.8520     0.8200    -2.7540 h1         1 XP5       0.050700
     46 H62C         0.5730     1.8670    -2.1230 h1         1 XP5       0.050700
     47 HAM          2.0780     3.1820    -3.5370 h1         1 XP5       0.081700
     48 H81C         2.7960     4.8800    -1.8520 h1         1 XP5       0.053700
     49 H82C         1.1440     4.3120    -1.5760 h1         1 XP5       0.053700
     50 H101         3.8530     3.9130     2.1580 hc         1 XP5       0.066700
     51 H102         2.2520     3.2620     2.5350 hc         1 XP5       0.066700
     52 H111         1.4600     5.5340     3.1050 hc         1 XP5       0.060200
     53 H112         3.0610     6.1860     2.7270 hc         1 XP5       0.060200
     54 H121         4.0550     4.7710     4.4960 hc         1 XP5       0.031700
     55 H122         2.4540     4.1190     4.8730 hc         1 XP5       0.031700
     56 H131         1.6620     6.3910     5.4440 hc         1 XP5       0.047200
     57 H132         3.2620     7.0440     5.0670 hc         1 XP5       0.047200
     58 H141         4.2560     5.6290     6.8340 hc         1 XP5       0.034200
     59 H142         2.6560     4.9760     7.2110 hc         1 XP5       0.034200
     60 H151         3.1700     6.7650     8.7890 hc         1 XP5       0.034033
     61 H152         1.8790     7.3090     7.7090 hc         1 XP5       0.034033
     62 H153         3.5370     7.8750     7.4610 hc         1 XP5       0.034033
     63 H181         6.0180     0.9650    -3.1740 hc         1 XP5       0.070200
     64 H182         6.3690     2.6130    -3.7120 hc         1 XP5       0.070200
     65 H191         5.7890     1.9790    -6.0310 hc         1 XP5       0.059200
     66 H192         5.4390     0.3310    -5.4930 hc         1 XP5       0.059200
     67 H201         8.1250     1.7360    -5.2580 hc         1 XP5       0.038700
     68 H202         7.7750     0.0880    -4.7180 hc         1 XP5       0.038700
     69 H211         7.5460     1.1000    -7.5760 hc         1 XP5       0.044200
     70 H212         7.1960    -0.5480    -7.0360 hc         1 XP5       0.044200
     71 H221         9.8830     0.8570    -6.8020 hc         1 XP5       0.038700
     72 H222         9.5330    -0.7910    -6.2620 hc         1 XP5       0.038700
     73 H231         9.3490     0.2380    -9.1170 hc         1 XP5       0.032367
     74 H232         8.9170    -1.3980    -8.5980 hc         1 XP5       0.032367
     75 H233        10.5930    -0.8450    -8.4760 hc         1 XP5       0.032367
     76 C17          4.3070     2.0850    -3.7670 c          1 XP5       0.633100
@<TRIPOS>BOND
     1     1     3 1
     2     2     3 1
     3     3     4 1
     4     3    11 1
     5     4     5 1
     6     5     6 1
     7     6     7 1
     8     7     8 1
     9     7     9 1
    10     7    10 1
    11    11    12 1
    12    12    31 1
    13    13    14 1
    14    13    31 1
    15    14    15 1
    16    15    16 2
    17    15    17 1
    18    17    18 1
    19    18    19 1
    20    19    20 1
    21    20    21 1
    22    21    22 1
    23    23    76 2
    24    76    24 1
    25    76    25 1
    26    24    31 1
    27    25    26 1
    28    26    27 1
    29    27    28 1
    30    28    29 1
    31    29    30 1
    32     5    32 1
    33     5    33 1
    34     6    34 1
    35     6    35 1
    36     8    36 1
    37     8    37 1
    38     8    38 1
    39     9    39 1
    40     9    40 1
    41     9    41 1
    42    10    42 1
    43    10    43 1
    44    10    44 1
    45    12    45 1
    46    12    46 1
    47    31    47 1
    48    13    48 1
    49    13    49 1
    50    17    50 1
    51    17    51 1
    52    18    52 1
    53    18    53 1
    54    19    54 1
    55    19    55 1
    56    20    56 1
    57    20    57 1
    58    21    58 1
    59    21    59 1
    60    22    60 1
    61    22    61 1
    62    22    62 1
    63    25    63 1
    64    25    64 1
    65    26    65 1
    66    26    66 1
    67    27    67 1
    68    27    68 1
    69    28    69 1
    70    28    70 1
    71    29    71 1
    72    29    72 1
    73    30    73 1
    74    30    74 1
    75    30    75 1
@<TRIPOS>SUBSTRUCTURE
     1 XP5         1 TEMP              0 ****  ****    0 ROOT
