@<TRIPOS>MOLECULE
XP5
   76    75     1     0     0
SMALL
bcc


@<TRIPOS>ATOM
      1 O1           0.0000     0.0000     0.0000 o          1 XP5      -0.646000
      2 O2           2.0160    -1.3160    -0.7580 o          1 XP5      -0.646000
      3 P1           1.4790     0.0000     0.0000 p5         1 XP5       0.925800
      4 O3           2.0170     0.0000     1.5180 os         1 XP5      -0.483200
      5 C1           1.6350    -0.9860     2.4790 c3         1 XP5       0.303400
      6 C2           2.2230    -0.6230     3.8440 c3         1 XP5      -0.056200
      7 N1           1.7670    -1.5930     4.8480 n4         1 XP5       0.055200
      8 C3           2.2700    -2.9290     4.5020 c3         1 XP5       0.016433
      9 C4           2.2760    -1.2060     6.1710 c3         1 XP5       0.016433
     10 C5           0.2990    -1.6150     4.8750 c3         1 XP5       0.016433
     11 O4           2.0170     1.3130    -0.7590 os         1 XP5      -0.485200
     12 C6           1.6350     1.6510    -2.0950 c3         1 XP5       0.293400
     13 C8           2.1890     4.0290    -1.5650 c3         1 XP5       0.231400
     14 O5           2.5600     3.5980    -0.2290 os         1 XP5      -0.349900
     15 C9           2.3280     4.4570     0.7750 c          1 XP5       0.689100
     16 O6           1.7480     5.4950     0.5600 o          1 XP5      -0.615000
     17 C10          2.7910     4.1280     2.1710 c3         1 XP5      -0.070400
     18 C11          2.5220     5.3200     3.0920 c3         1 XP5      -0.023400
     19 C12          2.9930     4.9850     4.5090 c3         1 XP5      -0.027400
     20 C13          2.7240     6.1780     5.4310 c3         1 XP5      -0.029400
     21 C14          3.1940     5.8430     6.8470 c3         1 XP5      -0.027400
     22 C15          2.9250     7.0350     7.7690 c3         1 XP5       0.006900
     23 O7           3.5630     1.9350    -4.7070 o          1 XP5      -0.600000
     24 O8           3.8340     2.5650    -2.6060 os         1 XP5      -0.390900
     25 C18          5.7660     1.7320    -3.8970 c3         1 XP5      -0.070400
     26 C19          6.0410     1.2120    -5.3090 c3         1 XP5      -0.020400
     27 C20          7.5230     0.8540    -5.4410 c3         1 XP5      -0.030400
     28 C21          7.7990     0.3340    -6.8530 c3         1 XP5      -0.028400
     29 C22          9.2800    -0.0250    -6.9850 c3         1 XP5      -0.028400
     30 C23          9.5550    -0.5450    -8.3970 c3         1 XP5       0.006900
     31 CAM          2.4180     2.8840    -2.5530 c3         1 XP5       0.152100
     32 H11C         2.0090    -1.9550     2.1710 h1         1 XP5      -0.001300
     33 H12C         0.5540    -1.0220     2.5490 h1         1 XP5      -0.001300
     34 H21C         3.3040    -0.6420     3.7880 hx         1 XP5       0.074700
     35 H22C         1.8940     0.3700     4.1260 hx         1 XP5       0.074700
     36 H31C         1.6400    -3.3650     3.7360 hx         1 XP5       0.068367
     37 H32C         2.2570    -3.5590     5.3820 hx         1 XP5       0.068367
     38 H33C         3.2850    -2.8470     4.1310 hx         1 XP5       0.068367
     39 H41C         1.8520    -0.2510     6.4550 hx         1 XP5       0.068367
     40 H42C         1.9950    -1.9570     6.9000 hx         1 XP5       0.068367
     41 H43C         3.3550    -1.1250     6.1330 hx         1 XP5       0.068367
     42 H51C        -0.0800    -0.6100     4.7360 hx         1 XP5       0.068367
     43 H52C        -0.0680    -2.2530     4.0800 hx         1 XP5       0.068367
     44 H53C        -0.0390    -1.9990     5.8300 hx         1 XP5       0.068367
     45 H61C         1.8520     0.8200    -2.7540 h1         1 XP5       0.001700
     46 H62C         0.5730     1.8670    -2.1230 h1         1 XP5       0.001700
     47 HAM          2.0780     3.1820    -3.5370 h1         1 XP5       0.041700
     48 H81C         2.7960     4.8800    -1.8520 h1         1 XP5       0.010200
     49 H82C         1.1440     4.3120    -1.5760 h1         1 XP5       0.010200
     50 H101         3.8530     3.9130     2.1580 hc         1 XP5       0.032200
     51 H102         2.2520     3.2620     2.5350 hc         1 XP5       0.032200
     52 H111         1.4600     5.5340     3.1050 hc         1 XP5       0.030700
     53 H112         3.0610     6.1860     2.7270 hc         1 XP5       0.030700
     54 H121         4.0550     4.7710     4.4960 hc         1 XP5       0.004200
     55 H122         2.4540     4.1190     4.8730 hc         1 XP5       0.004200
     56 H131         1.6620     6.3910     5.4440 hc         1 XP5       0.019700
     57 H132         3.2620     7.0440     5.0670 hc         1 XP5       0.019700
     58 H141         4.2560     5.6290     6.8340 hc         1 XP5       0.005700
     59 H142         2.6560     4.9760     7.2110 hc         1 XP5       0.005700
     60 H151         3.1700     6.7650     8.7890 hc         1 XP5       0.001033
     61 H152         1.8790     7.3090     7.7090 hc         1 XP5       0.001033
     62 H153         3.5370     7.8750     7.4610 hc         1 XP5       0.001033
     63 H181         6.0180     0.9650    -3.1740 hc         1 XP5       0.033700
     64 H182         6.3690     2.6130    -3.7120 hc         1 XP5       0.033700
     65 H191         5.7890     1.9790    -6.0310 hc         1 XP5       0.030200
     66 H192         5.4390     0.3310    -5.4930 hc         1 XP5       0.030200
     67 H201         8.1250     1.7360    -5.2580 hc         1 XP5       0.011200
     68 H202         7.7750     0.0880    -4.7180 hc         1 XP5       0.011200
     69 H211         7.5460     1.1000    -7.5760 hc         1 XP5       0.017200
     70 H212         7.1960    -0.5480    -7.0360 hc         1 XP5       0.017200
     71 H221         9.8830     0.8570    -6.8020 hc         1 XP5       0.010200
     72 H222         9.5330    -0.7910    -6.2620 hc         1 XP5       0.010200
     73 H231         9.3490     0.2380    -9.1170 hc         1 XP5      -0.000300
     74 H232         8.9170    -1.3980    -8.5980 hc         1 XP5      -0.000300
     75 H233        10.5930    -0.8450    -8.4760 hc         1 XP5      -0.000300
     76 C17          4.3070     2.0850    -3.7670 c          1 XP5       0.697100
@<TRIPOS>BOND
     1     1     3 1   
     2     2     3 1   
     3     3     4 1   
     4     3    11 1   
     5     4     5 1   
     6     5     6 1   
     7     5    32 1   
     8     5    33 1   
     9     6     7 1   
    10     6    34 1   
    11     6    35 1   
    12     7     8 1   
    13     7     9 1   
    14     7    10 1   
    15     8    36 1   
    16     8    37 1   
    17     8    38 1   
    18     9    39 1   
    19     9    40 1   
    20     9    41 1   
    21    10    42 1   
    22    10    43 1   
    23    10    44 1   
    24    11    12 1   
    25    12    31 1   
    26    12    45 1   
    27    12    46 1   
    28    13    14 1   
    29    13    31 1   
    30    13    48 1   
    31    13    49 1   
    32    14    15 1   
    33    15    16 2   
    34    15    17 1   
    35    17    18 1   
    36    17    50 1   
    37    17    51 1   
    38    18    19 1   
    39    18    52 1   
    40    18    53 1   
    41    19    20 1   
    42    19    54 1   
    43    19    55 1   
    44    20    21 1   
    45    20    56 1   
    46    20    57 1   
    47    21    22 1   
    48    21    58 1   
    49    21    59 1   
    50    22    60 1   
    51    22    61 1   
    52    22    62 1   
    53    23    76 2   
    54    24    31 1   
    55    24    76 1   
    56    25    26 1   
    57    25    63 1   
    58    25    64 1   
    59    25    76 1   
    60    26    27 1   
    61    26    65 1   
    62    26    66 1   
    63    27    28 1   
    64    27    67 1   
    65    27    68 1   
    66    28    29 1   
    67    28    69 1   
    68    28    70 1   
    69    29    30 1   
    70    29    71 1   
    71    29    72 1   
    72    30    73 1   
    73    30    74 1   
    74    30    75 1   
    75    31    47 1   
@<TRIPOS>SUBSTRUCTURE
     1 XP5         1 TEMP              0 ****  ****    0 ROOT
