@<TRIPOS>MOLECULE
molecule
   43    42     1     0     0
SMALL
bcc


@<TRIPOS>ATOM
      1 C            0.0000     0.0000     0.0000 c          1 XP8       0.907600
      2 N            1.9950     1.1960    -0.6910 ns         1 XP8      -0.495900
      3 OXT         -0.6710    -1.0080     0.5820 o          1 XP8      -0.835300
      4 P            0.5290     0.9260     3.4590 p5         1 XP8       1.202900
      5 C1           2.1230     1.1940    -2.0330 c          1 XP8       0.642100
      6 O1           1.8350     0.2020    -2.6680 o          1 XP8      -0.672100
      7 C2           2.6260     2.4250    -2.7430 c3         1 XP8      -0.163400
      8 C3           2.6770     2.1590    -4.2490 c3         1 XP8      -0.062400
      9 C4           3.1870     3.4080    -4.9700 c3         1 XP8      -0.087400
     10 C5           3.2380     3.1420    -6.4760 c3         1 XP8      -0.080400
     11 C6           3.7480     4.3920    -7.1980 c3         1 XP8      -0.083400
     12 C7           3.7990     4.1260    -8.7030 c3         1 XP8      -0.063400
     13 C8           4.3090     5.3750    -9.4250 c3         1 XP8       0.035700
     14 S8           4.3690     5.0600   -11.2110 sh         1 XP8      -0.544900
     15 CA           1.5070     0.0000     0.0000 c3         1 XP8      -0.013300
     16 CB           2.0170     0.0000     1.4420 c3         1 XP8       0.233100
     17 CG           3.5420     0.1260     1.4440 c3         1 XP8      -0.113100
     18 O1P         -0.8310     0.1600     3.0620 o          1 XP8      -0.855500
     19 O2P          0.1720     2.3740     4.0650 o          1 XP8      -0.855500
     20 O3P          1.2620     0.1340     4.4730 o          1 XP8      -0.855500
     21 O4P          1.4470     1.1030     2.1490 os         1 XP8      -0.576200
     22 O           -0.6050     0.9030    -0.5280 o          1 XP8      -0.835300
     23 HN           2.2040     2.0240    -0.1700 hn         1 XP8       0.316500
     24 H2           3.6200     2.6670    -2.3850 hc         1 XP8       0.042200
     25 H2A          1.9580     3.2540    -2.5450 hc         1 XP8       0.042200
     26 H3           3.3450     1.3300    -4.4470 hc         1 XP8       0.053200
     27 H3A          1.6840     1.9160    -4.6060 hc         1 XP8       0.053200
     28 H4           4.1800     3.6520    -4.6130 hc         1 XP8       0.030700
     29 H4A          2.5180     4.2370    -4.7720 hc         1 XP8       0.030700
     30 H5           2.2440     2.8990    -6.8330 hc         1 XP8       0.040700
     31 H5A          3.9060     2.3130    -6.6730 hc         1 XP8       0.040700
     32 H6           3.0790     5.2210    -7.0010 hc         1 XP8       0.034700
     33 H6A          4.7410     4.6360    -6.8400 hc         1 XP8       0.034700
     34 H7           2.8060     3.8820    -9.0610 hc         1 XP8       0.048200
     35 H7A          4.4680     3.2960    -8.9010 hc         1 XP8       0.048200
     36 H8           5.3020     5.6180    -9.0670 h1         1 XP8       0.038700
     37 H8A          3.6400     6.2040    -9.2270 h1         1 XP8       0.038700
     38 HS8          4.8140     6.1430   -11.8360 hs         1 XP8       0.157800
     39 HA           1.8680    -0.8850    -0.5100 h1         1 XP8       0.036700
     40 HB           1.7310    -0.9260     1.9270 h1         1 XP8       0.067700
     41 HG           3.9390    -0.2750     0.5190 hc         1 XP8       0.006367
     42 HGA          3.8180     1.1700     1.5320 hc         1 XP8       0.006367
     43 HGB          3.9500    -0.4270     2.2810 hc         1 XP8       0.006367
@<TRIPOS>BOND
     1    15     1 1
     2    22     1 1
     3     1     3 1
     4     5     2 1
     5     2    15 1
     6     2    23 1
     7    20     4 1
     8    18     4 1
     9    21     4 1
    10     4    19 1
    11     7     5 1
    12     5     6 2
    13     7     8 1
    14     7    24 1
    15     7    25 1
    16     9     8 1
    17     8    26 1
    18     8    27 1
    19    10     9 1
    20     9    28 1
    21     9    29 1
    22    11    10 1
    23    10    30 1
    24    10    31 1
    25    12    11 1
    26    11    32 1
    27    11    33 1
    28    13    12 1
    29    12    34 1
    30    12    35 1
    31    14    13 1
    32    13    36 1
    33    13    37 1
    34    14    38 1
    35    16    15 1
    36    15    39 1
    37    17    16 1
    38    21    16 1
    39    16    40 1
    40    17    41 1
    41    17    42 1
    42    17    43 1
@<TRIPOS>SUBSTRUCTURE
     1 XP8         1 TEMP              0 ****  ****    0 ROOT
