@<TRIPOS>MOLECULE
XP8
   44    43     1     0     0
SMALL
bcc


@<TRIPOS>ATOM
      1 C           0.3130   -1.1930   -0.8760 c         1 XP8      0.915600
      2 N           2.1630    0.3630   -1.4330 n         1 XP8     -0.487900
      3 OXT        -0.5700   -0.4880   -1.4420 o         1 XP8     -0.853300
      4 P           2.0620    2.6730    1.4820 p5        1 XP8      1.428800
      5 C1          3.4880    0.4590   -1.7630 c         1 XP8      0.663100
      6 O1          4.3300   -0.4520   -1.5770 o         1 XP8     -0.671100
      7 C2          3.9230    1.7380   -2.4760 c3        1 XP8     -0.170400
      8 C3          3.3700    1.8150   -3.8810 c3        1 XP8     -0.072400
      9 C4          3.8090    3.0950   -4.5610 c3        1 XP8     -0.079400
     10 C5          3.2880    3.1740   -5.9810 c3        1 XP8     -0.079400
     11 C6          3.6710    4.4880   -6.6270 c3        1 XP8     -0.077400
     12 C7          3.2030    4.5550   -8.0670 c3        1 XP8     -0.074400
     13 C8          3.5330    5.8960   -8.6710 c3        1 XP8      0.020700
     14 S8          3.0830    5.8470  -10.3880 sh        1 XP8     -0.398900
     15 CA          1.6480   -0.5160   -0.4070 c3        1 XP8     -0.045300
     16 CB          1.3490    0.2220    0.9360 c3        1 XP8      0.185100
     17 CG          1.1520   -0.8240    2.0250 c3        1 XP8     -0.104100
     18 O1P         0.7750    2.8340    2.1960 o         1 XP8     -0.848500
     19 O2P         1.6550    3.0050   -0.0750 oh        1 XP8     -0.797400
     20 O3P         3.3110    3.3810    1.8290 o         1 XP8     -0.848500
     21 O4P         2.4000    1.0780    1.3020 os        1 XP8     -0.584200
     22 O           0.1850   -2.4300   -0.6460 o         1 XP8     -0.853300
     23 HN          1.5970    1.1710   -1.5890 hn        1 XP8      0.310500
     24 H2          5.0430    1.7500   -2.5030 hc        1 XP8      0.068700
     25 H2A         3.5800    2.6230   -1.8710 hc        1 XP8      0.068700
     26 H3          3.7220    0.9300   -4.4740 hc        1 XP8      0.047700
     27 H3A         2.2490    1.7720   -3.8530 hc        1 XP8      0.047700
     28 H4          4.9290    3.1530   -4.5690 hc        1 XP8      0.037200
     29 H4A         3.4360    3.9740   -3.9730 hc        1 XP8      0.037200
     30 H5          2.1710    3.0670   -5.9770 hc        1 XP8      0.041200
     31 H5A         3.7000    2.3220   -6.5820 hc        1 XP8      0.041200
     32 H6          4.7850    4.6150   -6.5890 hc        1 XP8      0.037700
     33 H6A         3.2210    5.3350   -6.0450 hc        1 XP8      0.037700
     34 H7          2.0950    4.3790   -8.1110 hc        1 XP8      0.055700
     35 H7A         3.6940    3.7380   -8.6600 hc        1 XP8      0.055700
     36 H8          2.9710    6.7070   -8.1480 h1        1 XP8      0.057200
     37 H8A         4.6240    6.1120   -8.5710 h1        1 XP8      0.057200
     38 HS8         3.3510    7.0990  -10.7050 hs        1 XP8      0.186800
     39 HA          2.4120   -1.3200   -0.2140 h1        1 XP8      0.074700
     40 HB          0.4030    0.8280    0.8120 h1        1 XP8      0.044700
     41 HG          0.4770   -1.6300    1.6460 hc        1 XP8      0.032367
     42 HGA         0.7050   -0.3530    2.9320 hc        1 XP8      0.032367
     43 HGB         2.1360   -1.2710    2.3050 hc        1 XP8      0.032367
     44 H21         0.7150    2.9480   -0.2100 ho        1 XP8      0.426000
@<TRIPOS>BOND
     1    1    3 1   
     2    1   15 1   
     3    1   22 1   
     4    2    5 1   
     5    2   15 1   
     6    2   23 1   
     7    4   18 1   
     8    4   19 1   
     9    4   20 1   
    10    4   21 1   
    11    5    6 2   
    12    5    7 1   
    13    7    8 1   
    14    7   24 1   
    15    7   25 1   
    16    8    9 1   
    17    8   26 1   
    18    8   27 1   
    19    9   10 1   
    20    9   28 1   
    21    9   29 1   
    22   10   11 1   
    23   10   30 1   
    24   10   31 1   
    25   11   12 1   
    26   11   32 1   
    27   11   33 1   
    28   12   13 1   
    29   12   34 1   
    30   12   35 1   
    31   13   14 1   
    32   13   36 1   
    33   13   37 1   
    34   14   38 1   
    35   15   16 1   
    36   15   39 1   
    37   16   17 1   
    38   16   21 1   
    39   16   40 1   
    40   17   41 1   
    41   17   42 1   
    42   17   43 1   
    43   19   44 1   
@<TRIPOS>SUBSTRUCTURE
     1 XP8         1 TEMP              0 ****  ****    0 ROOT
