@<TRIPOS>MOLECULE
XP9
   47    45     1     0     0
SMALL
bcc


@<TRIPOS>ATOM
      1 C           1.4940   -1.0210   -1.6450 c2        1 XP9      0.323000
      2 N           2.6040    1.1500   -1.1270 n         1 XP9     -0.298000
      3 OXT         0.8970   -0.4660   -2.6120 o         1 XP9     -0.579500
      4 P           0.6830    2.4270    3.2720 p3        1 XP9      2.438000
      5 C1          3.9080    1.4170   -1.4470 c2        1 XP9      0.296000
      6 O1          4.8890    0.7760   -1.0020 o         1 XP9     -0.420000
      7 C2          4.1590    2.6330   -2.3380 c3        1 XP9     -0.188000
      8 C3          3.6980    2.3650   -3.7530 c3        1 XP9     -0.163000
      9 C4          4.0010    3.5410   -4.6590 c3        1 XP9     -0.154000
     10 C5          3.5020    3.2820   -6.0640 c3        1 XP9     -0.160000
     11 C6          3.8120    4.4420   -6.9860 c3        1 XP9     -0.156000
     12 C7          3.2770    4.1860   -8.3790 c3        1 XP9     -0.157000
     13 C8          3.6080    5.3290   -9.3170 c3        1 XP9     -0.152000
     14 C9          3.0370    5.0740  -10.6890 c3        1 XP9     -0.241000
     15 S9          3.5330    6.4180  -11.7390 sh        1 XP9     -0.045000
     16 CA          2.1590   -0.1030   -0.5540 c3        1 XP9     -0.100000
     17 CB          1.1180    0.1100    0.5770 c3        1 XP9      0.057000
     18 CG          0.9880   -1.1660    1.3890 c3        1 XP9     -0.252000
     19 O1P         2.0890    2.0960    3.6000 o         1 XP9     -1.147667
     20 O2P         0.3540    3.7600    2.7280 o         1 XP9     -1.147667
     21 O3P        -0.4050    1.5660    3.7770 o         1 XP9     -1.147667
     22 O4P         1.4190    1.2060    1.4330 oh        1 XP9     -0.405000
     23 O           1.6030   -2.2680   -1.4990 o         1 XP9     -0.579500
     24 HN          1.8970    1.6060   -1.6640 hn        1 XP9      0.224000
     25 H2          5.2590    2.8440   -2.3240 hc        1 XP9      0.093500
     26 H2A         3.6320    3.5290   -1.9180 hc        1 XP9      0.093500
     27 H3          4.2100    1.4460   -4.1440 hc        1 XP9      0.100500
     28 H3A         2.5950    2.1550   -3.7670 hc        1 XP9      0.100500
     29 H4          5.1070    3.7290   -4.6790 hc        1 XP9      0.070500
     30 H4A         3.5150    4.4660   -4.2510 hc        1 XP9      0.070500
     31 H5          2.3940    3.1050   -6.0390 hc        1 XP9      0.085000
     32 H5A         3.9750    2.3470   -6.4630 hc        1 XP9      0.085000
     33 H6          4.9210    4.6030   -7.0320 hc        1 XP9      0.075500
     34 H6A         3.3580    5.3820   -6.5750 hc        1 XP9      0.075500
     35 H7          2.1640    4.0470   -8.3320 hc        1 XP9      0.081500
     36 H7A         3.7130    3.2330   -8.7790 hc        1 XP9      0.081500
     37 H8          4.7220    5.4500   -9.3840 hc        1 XP9      0.093500
     38 H8A         3.1920    6.2870   -8.9050 hc        1 XP9      0.093500
     39 H9          1.9240    5.0120  -10.6430 h1        1 XP9      0.099000
     40 H9A         3.4210    4.1080  -11.0980 h1        1 XP9      0.099000
     41 HS9         2.9120    6.0540  -12.8440 hs        1 XP9      0.020000
     42 HA          3.0540   -0.6410   -0.1320 h1        1 XP9      0.117000
     43 HB          0.1280    0.3910    0.1170 h1        1 XP9      0.109000
     44 HG          0.7970   -2.0270    0.7040 hc        1 XP9      0.086667
     45 HGA         1.9300   -1.3580    1.9570 hc        1 XP9      0.086667
     46 HGB         0.1520   -1.0610    2.1200 hc        1 XP9      0.086667
     47 H21         2.3090    1.0810    1.8050 ho        1 XP9      0.251000
@<TRIPOS>BOND
     1    1    3 1   
     2    1   16 1   
     3    1   23 1   
     4    2    5 1   
     5    2   16 1   
     6    2   24 1   
     7    4   19 1   
     8    4   20 1   
     9    4   21 1   
    10    5    6 1   
    11    5    7 1   
    12    7    8 1   
    13    7   25 1   
    14    7   26 1   
    15    8    9 1   
    16    8   27 1   
    17    8   28 1   
    18    9   10 1   
    19    9   29 1   
    20    9   30 1   
    21   10   11 1   
    22   10   31 1   
    23   10   32 1   
    24   11   12 1   
    25   11   33 1   
    26   11   34 1   
    27   12   13 1   
    28   12   35 1   
    29   12   36 1   
    30   13   14 1   
    31   13   37 1   
    32   13   38 1   
    33   14   15 1   
    34   14   39 1   
    35   14   40 1   
    36   15   41 1   
    37   16   17 1   
    38   16   42 1   
    39   17   18 1   
    40   17   22 1   
    41   17   43 1   
    42   18   44 1   
    43   18   45 1   
    44   18   46 1   
    45   22   47 1   
@<TRIPOS>SUBSTRUCTURE
     1 XP9         1 TEMP              0 ****  ****    0 ROOT
