@<TRIPOS>MOLECULE
molecule
   46    45     1     0     0
SMALL
bcc


@<TRIPOS>ATOM
      1 C            0.0000     0.0000     0.0000 c          1 XP9       0.906600
      2 N            1.9960     1.1950    -0.6920 ns         1 XP9      -0.495900
      3 OXT         -0.6710    -1.0070     0.5820 o          1 XP9      -0.835300
      4 P            0.5290     0.9280     3.4590 p5         1 XP9       1.205900
      5 C1           2.1230     1.1930    -2.0340 c          1 XP9       0.642100
      6 O1           1.8340     0.2000    -2.6690 o          1 XP9      -0.673100
      7 C2           2.6260     2.4230    -2.7450 c3         1 XP9      -0.162400
      8 C3           2.6770     2.1550    -4.2510 c3         1 XP9      -0.062400
      9 C4           3.1870     3.4050    -4.9730 c3         1 XP9      -0.087400
     10 C5           3.2390     3.1380    -6.4780 c3         1 XP9      -0.081400
     11 C6           3.7480     4.3860    -7.2000 c3         1 XP9      -0.082400
     12 C7           3.7990     4.1200    -8.7060 c3         1 XP9      -0.083400
     13 C8           4.3090     5.3680    -9.4280 c3         1 XP9      -0.063400
     14 C9           4.3610     5.1010   -10.9340 c3         1 XP9       0.032700
     15 S9           4.9650     6.5820   -11.7900 sh         1 XP9      -0.553900
     16 CA           1.5070     0.0000     0.0000 c3         1 XP9      -0.014300
     17 CB           2.0170     0.0000     1.4430 c3         1 XP9       0.232100
     18 CG           3.5420     0.1260     1.4440 c3         1 XP9      -0.113100
     19 O1P          0.1720     2.3770     4.0640 o          1 XP9      -0.848833
     20 O2P          1.2620     0.1370     4.4720 o          1 XP9      -0.848833
     21 O3P         -0.8310     0.1630     3.0610 o          1 XP9      -0.848833
     22 O4P          1.4480     1.1050     2.1490 os         1 XP9      -0.577200
     23 O           -0.6040     0.9030    -0.5280 o          1 XP9      -0.835300
     24 HN           2.2020     2.0250    -0.1720 hn         1 XP9       0.316500
     25 H2           3.6190     2.6660    -2.3870 hc         1 XP9       0.042200
     26 H2A          1.9580     3.2520    -2.5480 hc         1 XP9       0.042200
     27 H3           1.6840     1.9110    -4.6080 hc         1 XP9       0.052200
     28 H3A          3.3460     1.3260    -4.4480 hc         1 XP9       0.052200
     29 H4           2.5180     4.2340    -4.7750 hc         1 XP9       0.031700
     30 H4A          4.1790     3.6490    -4.6150 hc         1 XP9       0.031700
     31 H5           3.9070     2.3090    -6.6750 hc         1 XP9       0.038700
     32 H5A          2.2460     2.8940    -6.8360 hc         1 XP9       0.038700
     33 H6           3.0800     5.2150    -7.0030 hc         1 XP9       0.037200
     34 H6A          4.7410     4.6290    -6.8430 hc         1 XP9       0.037200
     35 H7           2.8060     3.8770    -9.0630 hc         1 XP9       0.036200
     36 H7A          4.4670     3.2910    -8.9040 hc         1 XP9       0.036200
     37 H8           3.6400     6.1970    -9.2310 hc         1 XP9       0.046700
     38 H8A          5.3020     5.6120    -9.0700 hc         1 XP9       0.046700
     39 H9           5.0290     4.2720   -11.1310 h1         1 XP9       0.037700
     40 H9A          3.3680     4.8580   -11.2920 h1         1 XP9       0.037700
     41 HS9          5.0120     6.3500   -13.0960 hs         1 XP9       0.155800
     42 HA           1.8670    -0.8850    -0.5100 h1         1 XP9       0.036700
     43 HB           1.7300    -0.9250     1.9270 h1         1 XP9       0.067700
     44 HG           3.9380    -0.2760     0.5190 hc         1 XP9       0.007033
     45 HGA          3.8180     1.1700     1.5320 hc         1 XP9       0.007033
     46 HGB          3.9490    -0.4270     2.2820 hc         1 XP9       0.007033
@<TRIPOS>BOND
     1    23     1 1
     2     1     3 1
     3     1    16 1
     4    16     2 1
     5     2     5 1
     6     2    24 1
     7    20     4 1
     8     4    22 1
     9     4    19 1
    10     4    21 1
    11     6     5 2
    12     5     7 1
    13     7     8 1
    14     7    25 1
    15     7    26 1
    16     8     9 1
    17     8    27 1
    18     8    28 1
    19     9    10 1
    20     9    29 1
    21     9    30 1
    22    10    11 1
    23    10    31 1
    24    10    32 1
    25    11    12 1
    26    11    33 1
    27    11    34 1
    28    12    13 1
    29    12    35 1
    30    12    36 1
    31    13    14 1
    32    13    37 1
    33    13    38 1
    34    14    15 1
    35    14    39 1
    36    14    40 1
    37    15    41 1
    38    16    17 1
    39    16    42 1
    40    17    22 1
    41    17    18 1
    42    17    43 1
    43    18    44 1
    44    18    45 1
    45    18    46 1
@<TRIPOS>SUBSTRUCTURE
     1 XP9         1 TEMP              0 ****  ****    0 ROOT
