@<TRIPOS>MOLECULE
molecule
   75    74     1     0     0
SMALL
bcc


@<TRIPOS>ATOM
      1 O1           0.0000     0.0000     0.0000 o          1 XPA      -0.909167
      2 O2           2.0600     1.2620    -0.7270 o          1 XPA      -0.909167
      3 P1           1.5450     0.0000     0.0000 p5         1 XPA       1.144900
      4 O3           2.0810     0.0000     1.5190 o          1 XPA      -0.909167
      5 O4           2.0820    -1.3150    -0.7580 os         1 XPA      -0.522200
      6 C1           1.4800    -1.3180    -2.0550 c3         1 XPA       0.143400
      7 C2           1.9520    -2.5490    -2.8320 c3         1 XPA       0.145100
      8 C3           3.4810    -2.5750    -2.8690 c3         1 XPA       0.173400
      9 O5           3.9990    -2.5120    -1.5140 os         1 XPA      -0.329900
     10 C4           5.3240    -2.5210    -1.3010 c          1 XPA       0.646100
     11 O6           6.0860    -2.5800    -2.2370 o          1 XPA      -0.629000
     12 C5           5.8620    -2.4560     0.1050 c3         1 XPA      -0.126400
     13 C6           7.3920    -2.4810     0.0680 c3         1 XPA      -0.071400
     14 C7           7.9370    -2.4150     1.4960 c3         1 XPA      -0.084400
     15 C8           9.4660    -2.4410     1.4590 c3         1 XPA      -0.080400
     16 C9          10.0130    -2.3750     2.8860 c3         1 XPA      -0.082400
     17 C10         11.5420    -2.4000     2.8490 c3         1 XPA      -0.082400
     18 C11         12.0880    -2.3350     4.2770 c3         1 XPA      -0.082400
     19 C12         13.6180    -2.3600     4.2390 c3         1 XPA      -0.084400
     20 C13         14.1630    -2.2940     5.6670 c3         1 XPA      -0.092100
     21 O7           1.4630    -3.7500    -2.1780 os         1 XPA      -0.405900
     22 C14          0.2730    -4.2660    -2.5240 c          1 XPA       0.645100
     23 O8          -0.3910    -3.7300    -3.3790 o          1 XPA      -0.581000
     24 C15         -0.2330    -5.5140    -1.8460 c3         1 XPA      -0.126400
     25 C16         -1.6010    -5.8860    -2.4200 c3         1 XPA      -0.071400
     26 C17         -2.1160    -7.1520    -1.7310 c3         1 XPA      -0.084400
     27 C18         -3.4840    -7.5250    -2.3050 c3         1 XPA      -0.080400
     28 C19         -3.9990    -8.7910    -1.6170 c3         1 XPA      -0.082400
     29 C20         -5.3670    -9.1630    -2.1900 c3         1 XPA      -0.082400
     30 C21         -5.8810   -10.4290    -1.5020 c3         1 XPA      -0.082400
     31 C22         -7.2490   -10.8020    -2.0760 c3         1 XPA      -0.084400
     32 C23         -7.7630   -12.0680    -1.3870 c3         1 XPA      -0.092100
     33 H2           0.4020    -1.3470    -1.9530 h1         1 XPA       0.057700
     34 H3           1.7690    -0.4210    -2.5890 h1         1 XPA       0.057700
     35 H4           1.5670    -2.5070    -3.8440 h1         1 XPA       0.043700
     36 H5           3.8150    -3.4910    -3.3410 h1         1 XPA       0.032200
     37 H6           3.8420    -1.7240    -3.4340 h1         1 XPA       0.032200
     38 H7           5.5270    -1.5400     0.5770 hc         1 XPA       0.092700
     39 H8           5.5000    -3.3070     0.6690 hc         1 XPA       0.092700
     40 H9           7.7260    -3.3970    -0.4050 hc         1 XPA       0.044700
     41 H10          7.7530    -1.6300    -0.4970 hc         1 XPA       0.044700
     42 H11          7.6030    -1.5000     1.9680 hc         1 XPA       0.046700
     43 H12          7.5750    -3.2660     2.0600 hc         1 XPA       0.046700
     44 H13          9.8280    -1.5910     0.8940 hc         1 XPA       0.035700
     45 H14          9.8000    -3.3570     0.9860 hc         1 XPA       0.035700
     46 H15          9.6520    -3.2260     3.4510 hc         1 XPA       0.042700
     47 H16          9.6780    -1.4600     3.3590 hc         1 XPA       0.042700
     48 H17         11.9030    -1.5490     2.2850 hc         1 XPA       0.037200
     49 H18         11.8770    -3.3150     2.3760 hc         1 XPA       0.037200
     50 H19         11.7530    -1.4200     4.7510 hc         1 XPA       0.041200
     51 H20         11.7270    -3.1870     4.8410 hc         1 XPA       0.041200
     52 H21         13.9530    -3.2750     3.7660 hc         1 XPA       0.037200
     53 H22         13.9790    -1.5080     3.6750 hc         1 XPA       0.037200
     54 H23         15.2460    -2.3110     5.6410 hc         1 XPA       0.028367
     55 H24         13.8020    -3.1450     6.2320 hc         1 XPA       0.028367
     56 H25         13.8280    -1.3780     6.1400 hc         1 XPA       0.028367
     57 H26         -0.3240    -5.3350    -0.7820 hc         1 XPA       0.066700
     58 H27          0.4630    -6.3250    -2.0170 hc         1 XPA       0.066700
     59 H28         -2.2980    -5.0740    -2.2490 hc         1 XPA       0.056700
     60 H29         -1.5100    -6.0660    -3.4840 hc         1 XPA       0.056700
     61 H30         -1.4190    -7.9640    -1.9010 hc         1 XPA       0.037700
     62 H31         -2.2080    -6.9720    -0.6670 hc         1 XPA       0.037700
     63 H32         -3.3910    -7.7040    -3.3700 hc         1 XPA       0.042200
     64 H33         -4.1800    -6.7130    -2.1350 hc         1 XPA       0.042200
     65 H34         -4.0900    -8.6110    -0.5520 hc         1 XPA       0.038700
     66 H35         -3.3020    -9.6030    -1.7870 hc         1 XPA       0.038700
     67 H36         -5.2760    -9.3430    -3.2550 hc         1 XPA       0.040700
     68 H37         -6.0630    -8.3510    -2.0200 hc         1 XPA       0.040700
     69 H38         -5.1840   -11.2410    -1.6720 hc         1 XPA       0.039700
     70 H39         -5.9730   -10.2490    -0.4370 hc         1 XPA       0.039700
     71 H40         -7.1570   -10.9820    -3.1400 hc         1 XPA       0.038700
     72 H41         -7.9460    -9.9900    -1.9060 hc         1 XPA       0.038700
     73 H42         -7.8550   -11.8880    -0.3230 hc         1 XPA       0.028700
     74 H43         -8.7320   -12.3320    -1.7940 hc         1 XPA       0.028700
     75 H44         -7.0670   -12.8800    -1.5570 hc         1 XPA       0.028700
@<TRIPOS>BOND
     1     1     3 1
     2     2     3 1
     3     3     4 1
     4     3     5 1
     5     5     6 1
     6     6     7 1
     7     6    33 1
     8     6    34 1
     9     7     8 1
    10     7    21 1
    11     7    35 1
    12     8     9 1
    13     8    36 1
    14     8    37 1
    15     9    10 1
    16    10    11 2
    17    10    12 1
    18    12    13 1
    19    12    38 1
    20    12    39 1
    21    13    14 1
    22    13    40 1
    23    13    41 1
    24    14    15 1
    25    14    42 1
    26    14    43 1
    27    15    16 1
    28    15    44 1
    29    15    45 1
    30    16    17 1
    31    16    46 1
    32    16    47 1
    33    17    18 1
    34    17    48 1
    35    17    49 1
    36    18    19 1
    37    18    50 1
    38    18    51 1
    39    19    20 1
    40    19    52 1
    41    19    53 1
    42    20    54 1
    43    20    55 1
    44    20    56 1
    45    21    22 1
    46    22    23 2
    47    22    24 1
    48    24    25 1
    49    24    57 1
    50    24    58 1
    51    25    26 1
    52    25    59 1
    53    25    60 1
    54    26    27 1
    55    26    61 1
    56    26    62 1
    57    27    28 1
    58    27    63 1
    59    27    64 1
    60    28    29 1
    61    28    65 1
    62    28    66 1
    63    29    30 1
    64    29    67 1
    65    29    68 1
    66    30    31 1
    67    30    69 1
    68    30    70 1
    69    31    32 1
    70    31    71 1
    71    31    72 1
    72    32    73 1
    73    32    74 1
    74    32    75 1
@<TRIPOS>SUBSTRUCTURE
     1 XPA         1 TEMP              0 ****  ****    0 ROOT
