@<TRIPOS>MOLECULE
XPA
   75    74     1     0     0
SMALL
bcc


@<TRIPOS>ATOM
      1 O1          2.0480   -1.3870    1.1640 o         1 XPA     -0.915167
      2 O2          3.6230    0.6020    0.9960 o         1 XPA     -0.915167
      3 P1          3.4100   -0.8690    0.8080 p5        1 XPA      1.323900
      4 O3          4.5800   -1.7690    1.1410 o         1 XPA     -0.915167
      5 O4          3.4480   -1.0340   -0.9310 os        1 XPA     -0.564200
      6 C1          2.2750   -0.7570   -1.5650 c3        1 XPA      0.234400
      7 C2          1.9590   -1.7520   -2.7150 c3        1 XPA      0.091100
      8 C3          3.1580   -2.1160   -3.5880 c3        1 XPA      0.144400
      9 O5          3.9620   -3.0970   -2.9420 os        1 XPA     -0.457900
     10 C4          5.2290   -2.7050   -2.5420 c         1 XPA      0.697100
     11 O6          5.8570   -1.9950   -3.3380 o         1 XPA     -0.613000
     12 C5          5.6120   -3.2500   -1.2220 c3        1 XPA     -0.218400
     13 C6          7.0920   -3.1730   -0.9410 c3        1 XPA     -0.037400
     14 C7          7.3280   -3.2580    0.5530 c3        1 XPA     -0.114400
     15 C8          8.7580   -2.9170    0.9100 c3        1 XPA     -0.064400
     16 C9          8.9720   -2.9790    2.4070 c3        1 XPA     -0.082400
     17 C10        10.3870   -2.5940    2.7830 c3        1 XPA     -0.076400
     18 C11        10.5970   -2.6580    4.2810 c3        1 XPA     -0.080400
     19 C12        12.0090   -2.2670    4.6610 c3        1 XPA     -0.080400
     20 C13        12.2210   -2.3300    6.1520 c3        1 XPA     -0.089100
     21 O7          1.4220   -2.9280   -2.0830 os        1 XPA     -0.348900
     22 C14         0.6330   -3.7540   -2.7960 c         1 XPA      0.630100
     23 O8          0.3190   -3.4960   -3.9700 o         1 XPA     -0.623000
     24 C15         0.2160   -4.9550   -1.9940 c3        1 XPA     -0.139400
     25 C16        -1.1730   -5.4170   -2.3740 c3        1 XPA     -0.074400
     26 C17        -1.5340   -6.6980   -1.6520 c3        1 XPA     -0.079400
     27 C18        -2.9310   -7.1540   -2.0110 c3        1 XPA     -0.077400
     28 C19        -3.2920   -8.4380   -1.2940 c3        1 XPA     -0.079400
     29 C20        -4.6900   -8.8950   -1.6520 c3        1 XPA     -0.078400
     30 C21        -5.0510  -10.1790   -0.9360 c3        1 XPA     -0.079400
     31 C22        -6.4490  -10.6370   -1.2920 c3        1 XPA     -0.080400
     32 C23        -6.8120  -11.9150   -0.5810 c3        1 XPA     -0.091100
     33 H2          1.4090   -0.7680   -0.8410 h1        1 XPA      0.012700
     34 H3          2.3260    0.2450   -2.0950 h1        1 XPA      0.012700
     35 H4          1.1660   -1.3090   -3.3820 h1        1 XPA      0.023700
     36 H5          2.8090   -2.6030   -4.5400 h1        1 XPA      0.042700
     37 H6          3.7450   -1.1880   -3.8120 h1        1 XPA      0.042700
     38 H7          5.2190   -4.2880   -1.0970 hc        1 XPA      0.152700
     39 H8          5.0350   -2.5870   -0.4370 hc        1 XPA      0.152700
     40 H9          7.4910   -2.2000   -1.3330 hc        1 XPA      0.013200
     41 H10         7.6440   -3.9950   -1.4700 hc        1 XPA      0.013200
     42 H11         7.0880   -4.2920    0.9130 hc        1 XPA      0.090200
     43 H12         6.6040   -2.5510    1.0700 hc        1 XPA      0.090200
     44 H13         9.4660   -3.6230    0.3990 hc        1 XPA      0.017200
     45 H14         8.9970   -1.8850    0.5410 hc        1 XPA      0.017200
     46 H15         8.7530   -4.0150    2.7760 hc        1 XPA      0.048200
     47 H16         8.2420   -2.2880    2.9090 hc        1 XPA      0.048200
     48 H17        10.6010   -1.5550    2.4180 hc        1 XPA      0.028200
     49 H18        11.1140   -3.2800    2.2730 hc        1 XPA      0.028200
     50 H19         9.8670   -1.9730    4.7890 hc        1 XPA      0.040700
     51 H20        10.3830   -3.6960    4.6470 hc        1 XPA      0.040700
     52 H21        12.2190   -1.2270    4.2950 hc        1 XPA      0.032200
     53 H22        12.7370   -2.9490    4.1480 hc        1 XPA      0.032200
     54 H23        12.0410   -3.3640    6.5320 hc        1 XPA      0.024700
     55 H24        11.5190   -1.6380    6.6770 hc        1 XPA      0.024700
     56 H25        13.2670   -2.0360    6.4120 hc        1 XPA      0.024700
     57 H26         0.9690   -5.7630   -2.1880 hc        1 XPA      0.084200
     58 H27         0.2680   -4.6970   -0.9010 hc        1 XPA      0.084200
     59 H28        -1.2250   -5.5710   -3.4840 hc        1 XPA      0.047200
     60 H29        -1.9150   -4.6160   -2.1170 hc        1 XPA      0.047200
     61 H30        -1.4620   -6.5360   -0.5440 hc        1 XPA      0.040700
     62 H31        -0.7960   -7.5000   -1.9180 hc        1 XPA      0.040700
     63 H32        -3.6680   -6.3530   -1.7410 hc        1 XPA      0.036700
     64 H33        -3.0030   -7.3090   -3.1200 hc        1 XPA      0.036700
     65 H34        -3.2190   -8.2810   -0.1860 hc        1 XPA      0.038700
     66 H35        -2.5540   -9.2390   -1.5640 hc        1 XPA      0.038700
     67 H36        -5.4270   -8.0940   -1.3820 hc        1 XPA      0.036700
     68 H37        -4.7630   -9.0500   -2.7610 hc        1 XPA      0.036700
     69 H38        -4.3130  -10.9800   -1.2060 hc        1 XPA      0.039200
     70 H39        -4.9780  -10.0230    0.1730 hc        1 XPA      0.039200
     71 H40        -7.1840   -9.8330   -1.0220 hc        1 XPA      0.036700
     72 H41        -6.5200  -10.7890   -2.4020 hc        1 XPA      0.036700
     73 H42        -6.7700  -11.7750    0.5260 hc        1 XPA      0.028033
     74 H43        -6.1040  -12.7330   -0.8570 hc        1 XPA      0.028033
     75 H44        -7.8460  -12.2350   -0.8580 hc        1 XPA      0.028033
@<TRIPOS>BOND
     1    1    3 1   
     2    2    3 1   
     3    3    4 1   
     4    3    5 1   
     5    5    6 1   
     6    6    7 1   
     7    6   33 1   
     8    6   34 1   
     9    7    8 1   
    10    7   21 1   
    11    7   35 1   
    12    8    9 1   
    13    8   36 1   
    14    8   37 1   
    15    9   10 1   
    16   10   11 2   
    17   10   12 1   
    18   12   13 1   
    19   12   38 1   
    20   12   39 1   
    21   13   14 1   
    22   13   40 1   
    23   13   41 1   
    24   14   15 1   
    25   14   42 1   
    26   14   43 1   
    27   15   16 1   
    28   15   44 1   
    29   15   45 1   
    30   16   17 1   
    31   16   46 1   
    32   16   47 1   
    33   17   18 1   
    34   17   48 1   
    35   17   49 1   
    36   18   19 1   
    37   18   50 1   
    38   18   51 1   
    39   19   20 1   
    40   19   52 1   
    41   19   53 1   
    42   20   54 1   
    43   20   55 1   
    44   20   56 1   
    45   21   22 1   
    46   22   23 2   
    47   22   24 1   
    48   24   25 1   
    49   24   57 1   
    50   24   58 1   
    51   25   26 1   
    52   25   59 1   
    53   25   60 1   
    54   26   27 1   
    55   26   61 1   
    56   26   62 1   
    57   27   28 1   
    58   27   63 1   
    59   27   64 1   
    60   28   29 1   
    61   28   65 1   
    62   28   66 1   
    63   29   30 1   
    64   29   67 1   
    65   29   68 1   
    66   30   31 1   
    67   30   69 1   
    68   30   70 1   
    69   31   32 1   
    70   31   71 1   
    71   31   72 1   
    72   32   73 1   
    73   32   74 1   
    74   32   75 1   
@<TRIPOS>SUBSTRUCTURE
     1 XPA         1 TEMP              0 ****  ****    0 ROOT
