@<TRIPOS>MOLECULE
molecule
   73    72     1     0     0
SMALL
bcc


@<TRIPOS>ATOM
      1 O1           0.0000     0.0000     0.0000 oh         1 XPE      -0.598800
      2 C2           1.4290     0.0000     0.0000 c3         1 XPE       0.142400
      3 C3           1.9390     0.0000     1.4420 c3         1 XPE       0.128400
      4 O4           1.4620    -1.1670     2.1160 os         1 XPE      -0.381600
      5 C5           1.9690    -1.1090     3.4510 c3         1 XPE       0.126400
      6 C6           1.4940    -2.3350     4.2300 c3         1 XPE       0.126400
      7 O7           1.9700    -3.5210     3.5910 os         1 XPE      -0.384600
      8 C8           1.4950    -4.6260     4.3620 c3         1 XPE       0.126400
      9 C9           1.9740    -5.9340     3.7290 c3         1 XPE       0.126400
     10 O10          3.4020    -5.9540     3.6970 os         1 XPE      -0.384600
     11 C11          3.7850    -7.1930     3.0970 c3         1 XPE       0.126400
     12 C12          5.3110    -7.2780     3.0330 c3         1 XPE       0.126400
     13 O13          5.8480    -7.2040     4.3560 os         1 XPE      -0.384600
     14 C14          7.2690    -7.2880     4.2290 c3         1 XPE       0.126400
     15 C15          7.9090    -7.2130     5.6150 c3         1 XPE       0.126400
     16 O16          7.4370    -8.2980     6.4170 os         1 XPE      -0.383600
     17 C17          8.0680    -8.1730     7.6930 c3         1 XPE       0.126400
     18 C18          7.6030    -9.3090     8.6050 c3         1 XPE       0.126400
     19 O19          7.9550   -10.5640     8.0200 os         1 XPE      -0.384600
     20 C20          7.4970   -11.5800     8.9140 c3         1 XPE       0.126400
     21 C21          7.8440   -12.9560     8.3450 c3         1 XPE       0.126400
     22 O22          9.2610   -13.0630     8.1880 os         1 XPE      -0.384600
     23 C23          9.5200   -14.3630     7.6550 c3         1 XPE       0.126400
     24 C24         11.0270   -14.5440     7.4630 c3         1 XPE       0.126400
     25 O25         11.6880   -14.4050     8.7230 os         1 XPE      -0.384600
     26 C26         13.0850   -14.5830     8.4780 c3         1 XPE       0.126400
     27 C27         13.8540   -14.4450     9.7930 c3         1 XPE       0.126400
     28 O28         13.4020   -15.4390    10.7160 os         1 XPE      -0.381600
     29 C29         14.1540   -15.2590    11.9170 c3         1 XPE       0.128400
     30 C30         13.7170   -16.2970    12.9520 c3         1 XPE       0.142400
     31 O31         13.9470   -17.6100    12.4370 oh         1 XPE      -0.598800
     32 HO1         -0.3140     0.0920    -0.8840 ho         1 XPE       0.398000
     33 H21          1.7900     0.8850    -0.5110 h1         1 XPE       0.027700
     34 H22          1.7900    -0.8840    -0.5110 h1         1 XPE       0.027700
     35 H31A         1.5780     0.8850     1.9520 h1         1 XPE       0.031450
     36 H32          3.0220    -0.0000     1.4420 h1         1 XPE       0.031450
     37 H51          3.0520    -1.0950     3.4250 h1         1 XPE       0.032700
     38 H52          1.6070    -0.2110     3.9360 h1         1 XPE       0.032700
     39 H61          1.8780    -2.2910     5.2420 h1         1 XPE       0.033200
     40 H62          0.4110    -2.3490     4.2560 h1         1 XPE       0.033200
     41 H81          0.4120    -4.6120     4.3860 h1         1 XPE       0.032950
     42 H82          1.8790    -4.5530     5.3730 h1         1 XPE       0.032950
     43 H91          1.5890    -6.0070     2.7190 h1         1 XPE       0.033200
     44 H92          1.6140    -6.7710     4.3140 h1         1 XPE       0.033200
     45 H111         3.4020    -8.0150     3.6890 h1         1 XPE       0.033200
     46 H112         3.3780    -7.2490     2.0950 h1         1 XPE       0.033200
     47 H121         5.6010    -8.2170     2.5780 h1         1 XPE       0.032700
     48 H122         5.6940    -6.4560     2.4410 h1         1 XPE       0.032700
     49 H141         7.5340    -8.2270     3.7580 h1         1 XPE       0.032700
     50 H142         7.6270    -6.4660     3.6210 h1         1 XPE       0.032700
     51 H151         8.9870    -7.2780     5.5190 h1         1 XPE       0.032700
     52 H152         7.6450    -6.2740     6.0850 h1         1 XPE       0.032700
     53 H171         9.1430    -8.2250     7.5710 h1         1 XPE       0.032700
     54 H172         7.8010    -7.2220     8.1370 h1         1 XPE       0.032700
     55 H181         6.5280    -9.2570     8.7270 h1         1 XPE       0.032700
     56 H182         8.0810    -9.2150     9.5720 h1         1 XPE       0.032700
     57 H201         6.4230   -11.4990     9.0330 h1         1 XPE       0.032700
     58 H202         7.9760   -11.4570     9.8780 h1         1 XPE       0.032700
     59 H211         7.3640   -13.0800     7.3810 h1         1 XPE       0.033200
     60 H212         7.4960   -13.7260     9.0230 h1         1 XPE       0.033200
     61 H231         9.1510   -15.1150     8.3410 h1         1 XPE       0.033200
     62 H232         9.0190   -14.4680     6.7000 h1         1 XPE       0.033200
     63 H241        11.3960   -13.7920     6.7760 h1         1 XPE       0.032950
     64 H242        11.2240   -15.5300     7.0590 h1         1 XPE       0.032950
     65 H261        13.2560   -15.5680     8.0610 h1         1 XPE       0.033200
     66 H262        13.4280   -13.8300     7.7780 h1         1 XPE       0.033200
     67 H271        14.9130   -14.5800     9.6080 h1         1 XPE       0.032700
     68 H272        13.6830   -13.4600    10.2100 h1         1 XPE       0.032700
     69 H291        13.9790   -14.2640    12.3070 h1         1 XPE       0.031450
     70 H292        15.2090   -15.3830    11.7040 h1         1 XPE       0.031450
     71 H301        12.6620   -16.1720    13.1650 h1         1 XPE       0.027700
     72 H302        14.2880   -16.1610    13.8620 h1         1 XPE       0.027700
     73 H31         13.7630   -18.2470    13.1080 ho         1 XPE       0.398000
@<TRIPOS>BOND
     1     1     2 1
     2     1    32 1
     3     2     3 1
     4     2    33 1
     5     2    34 1
     6     3     4 1
     7     3    35 1
     8     3    36 1
     9     4     5 1
    10     5     6 1
    11     5    37 1
    12     5    38 1
    13     6     7 1
    14     6    39 1
    15     6    40 1
    16     7     8 1
    17     8     9 1
    18     8    41 1
    19     8    42 1
    20     9    10 1
    21     9    43 1
    22     9    44 1
    23    10    11 1
    24    11    12 1
    25    11    45 1
    26    11    46 1
    27    12    13 1
    28    12    47 1
    29    12    48 1
    30    13    14 1
    31    14    15 1
    32    14    49 1
    33    14    50 1
    34    15    16 1
    35    15    51 1
    36    15    52 1
    37    16    17 1
    38    17    18 1
    39    17    53 1
    40    17    54 1
    41    18    19 1
    42    18    55 1
    43    18    56 1
    44    19    20 1
    45    20    21 1
    46    20    57 1
    47    20    58 1
    48    21    22 1
    49    21    59 1
    50    21    60 1
    51    22    23 1
    52    23    24 1
    53    23    61 1
    54    23    62 1
    55    24    25 1
    56    24    63 1
    57    24    64 1
    58    25    26 1
    59    26    27 1
    60    26    65 1
    61    26    66 1
    62    27    28 1
    63    27    67 1
    64    27    68 1
    65    28    29 1
    66    29    30 1
    67    29    69 1
    68    29    70 1
    69    30    31 1
    70    30    71 1
    71    30    72 1
    72    31    73 1
@<TRIPOS>SUBSTRUCTURE
     1 XPE         1 TEMP              0 ****  ****    0 ROOT
