@<TRIPOS>MOLECULE
XPE
   73    72     1     0     0
SMALL
bcc


@<TRIPOS>ATOM
      1 O1         -0.9240    2.6990   -0.6600 oh        1 XPE     -0.599800
      2 C2         -1.5690    2.0090    0.3890 c3        1 XPE      0.131400
      3 C3         -1.4440    0.4970    0.2290 c3        1 XPE      0.087400
      4 O4         -0.0600    0.1950    0.3890 os        1 XPE     -0.438600
      5 C5          0.2170   -1.1920    0.2100 c3        1 XPE      0.128400
      6 C6          1.6780   -1.3970    0.5970 c3        1 XPE      0.127400
      7 O7          1.6730   -2.0670    1.8550 os        1 XPE     -0.428600
      8 C8          2.9820   -2.1820    2.4120 c3        1 XPE      0.127400
      9 C9          2.8520   -3.0680    3.6460 c3        1 XPE      0.127400
     10 O10         3.4260   -4.3270    3.3020 os        1 XPE     -0.429600
     11 C11         3.2330   -5.3050    4.3230 c3        1 XPE      0.127400
     12 C12         4.0510   -6.5250    3.9130 c3        1 XPE      0.127400
     13 O13         5.1880   -6.5590    4.7750 os        1 XPE     -0.429600
     14 C14         6.1250   -7.5640    4.3940 c3        1 XPE      0.127400
     15 C15         7.1890   -7.5990    5.4850 c3        1 XPE      0.127400
     16 O16         6.9760   -8.8020    6.2210 os        1 XPE     -0.429600
     17 C17         7.8020   -8.8790    7.3810 c3        1 XPE      0.127400
     18 C18         7.6080  -10.2770    7.9590 c3        1 XPE      0.127400
     19 O19         8.8070  -10.9980    7.6840 os        1 XPE     -0.429600
     20 C20         8.7020  -12.3760    8.0380 c3        1 XPE      0.127400
     21 C21        10.0930  -12.9760    7.8630 c3        1 XPE      0.127400
     22 O22        10.6150  -13.1800    9.1740 os        1 XPE     -0.429600
     23 C23        11.9840  -13.5800    9.1540 c3        1 XPE      0.127400
     24 C24        12.3560  -13.9220   10.5930 c3        1 XPE      0.127400
     25 O25        12.4560  -15.3440   10.6580 os        1 XPE     -0.428600
     26 C26        12.6370  -15.8120   11.9930 c3        1 XPE      0.127400
     27 C27        12.9020  -17.3100   11.8940 c3        1 XPE      0.128400
     28 O28        14.2900  -17.4960   12.1670 os        1 XPE     -0.438600
     29 C29        14.7130  -18.8390   11.9380 c3        1 XPE      0.087400
     30 C30        16.1860  -18.8910   12.3280 c3        1 XPE      0.131400
     31 O31        16.3670  -18.6850   13.7130 oh        1 XPE     -0.599800
     32 HO1        -0.0030    2.4070   -0.6640 ho        1 XPE      0.412000
     33 H21        -2.6480    2.3110    0.3180 h1        1 XPE      0.053700
     34 H22        -1.1450    2.3260    1.3790 h1        1 XPE      0.053700
     35 H31A       -1.7850    0.1760   -0.7910 h1        1 XPE      0.039200
     36 H32        -2.0440   -0.0340    1.0130 h1        1 XPE      0.039200
     37 H51         0.0560   -1.4620   -0.8670 h1        1 XPE      0.045200
     38 H52        -0.4570   -1.8100    0.8600 h1        1 XPE      0.045200
     39 H61         2.2100   -0.4120    0.6830 h1        1 XPE      0.043200
     40 H62         2.1970   -2.0410   -0.1620 h1        1 XPE      0.043200
     41 H81         3.6830   -2.6390    1.6650 h1        1 XPE      0.044200
     42 H82         3.3490   -1.1610    2.7000 h1        1 XPE      0.044200
     43 H91         3.4200   -2.6260    4.5060 h1        1 XPE      0.043700
     44 H92         1.7740   -3.1980    3.9320 h1        1 XPE      0.043700
     45 H111        3.5800   -4.9070    5.3130 h1        1 XPE      0.043700
     46 H112        2.1440   -5.5660    4.3810 h1        1 XPE      0.043700
     47 H121        4.3770   -6.4460    2.8430 h1        1 XPE      0.043200
     48 H122        3.4530   -7.4630    4.0570 h1        1 XPE      0.043200
     49 H141        5.6120   -8.5590    4.3040 h1        1 XPE      0.043700
     50 H142        6.5830   -7.2860    3.4080 h1        1 XPE      0.043700
     51 H151        8.2150   -7.6230    5.0310 h1        1 XPE      0.043700
     52 H152        7.0960   -6.7080    6.1610 h1        1 XPE      0.043700
     53 H171        7.4720   -8.1010    8.1190 h1        1 XPE      0.043700
     54 H172        8.8760   -8.7070    7.1050 h1        1 XPE      0.043700
     55 H181        6.7300  -10.7870    7.4820 h1        1 XPE      0.043700
     56 H182        7.4570  -10.2240    9.0690 h1        1 XPE      0.043700
     57 H201        8.3550  -12.4780    9.1010 h1        1 XPE      0.043200
     58 H202        7.9710  -12.8770    7.3520 h1        1 XPE      0.043200
     59 H211       10.7570  -12.2800    7.2840 h1        1 XPE      0.043700
     60 H212       10.0300  -13.9630    7.3340 h1        1 XPE      0.043700
     61 H231       12.6110  -12.7280    8.7810 h1        1 XPE      0.043700
     62 H232       12.1190  -14.4700    8.4850 h1        1 XPE      0.043700
     63 H241       13.3480  -13.4710   10.8590 h1        1 XPE      0.044200
     64 H242       11.5700  -13.5550   11.3060 h1        1 XPE      0.044200
     65 H261       13.5020  -15.2840   12.4760 h1        1 XPE      0.043200
     66 H262       11.7010  -15.6180   12.5810 h1        1 XPE      0.043200
     67 H271       12.6540  -17.6920   10.8680 h1        1 XPE      0.045200
     68 H272       12.3000  -17.8660   12.6600 h1        1 XPE      0.045200
     69 H291       14.1080  -19.5390   12.5730 h1        1 XPE      0.039200
     70 H292       14.5810  -19.1010   10.8560 h1        1 XPE      0.039200
     71 H301       16.7640  -18.1250   11.7450 h1        1 XPE      0.053700
     72 H302       16.5960  -19.9160   12.1290 h1        1 XPE      0.053700
     73 H31        15.9620  -17.8340   13.9250 ho        1 XPE      0.412000
@<TRIPOS>BOND
     1    1    2 1   
     2    1   32 1   
     3    2    3 1   
     4    2   33 1   
     5    2   34 1   
     6    3    4 1   
     7    3   35 1   
     8    3   36 1   
     9    4    5 1   
    10    5    6 1   
    11    5   37 1   
    12    5   38 1   
    13    6    7 1   
    14    6   39 1   
    15    6   40 1   
    16    7    8 1   
    17    8    9 1   
    18    8   41 1   
    19    8   42 1   
    20    9   10 1   
    21    9   43 1   
    22    9   44 1   
    23   10   11 1   
    24   11   12 1   
    25   11   45 1   
    26   11   46 1   
    27   12   13 1   
    28   12   47 1   
    29   12   48 1   
    30   13   14 1   
    31   14   15 1   
    32   14   49 1   
    33   14   50 1   
    34   15   16 1   
    35   15   51 1   
    36   15   52 1   
    37   16   17 1   
    38   17   18 1   
    39   17   53 1   
    40   17   54 1   
    41   18   19 1   
    42   18   55 1   
    43   18   56 1   
    44   19   20 1   
    45   20   21 1   
    46   20   57 1   
    47   20   58 1   
    48   21   22 1   
    49   21   59 1   
    50   21   60 1   
    51   22   23 1   
    52   23   24 1   
    53   23   61 1   
    54   23   62 1   
    55   24   25 1   
    56   24   63 1   
    57   24   64 1   
    58   25   26 1   
    59   26   27 1   
    60   26   65 1   
    61   26   66 1   
    62   27   28 1   
    63   27   67 1   
    64   27   68 1   
    65   28   29 1   
    66   29   30 1   
    67   29   69 1   
    68   29   70 1   
    69   30   31 1   
    70   30   71 1   
    71   30   72 1   
    72   31   73 1   
@<TRIPOS>SUBSTRUCTURE
     1 XPE         1 TEMP              0 ****  ****    0 ROOT
