@<TRIPOS>MOLECULE
molecule
   46    48     1     0     0
SMALL
bcc


@<TRIPOS>ATOM
      1 C21          0.0000     0.0000     0.0000 cc         1 XPF       0.044900
      2 C18         -2.2400    -0.0010    -1.0860 ca         1 XPF      -0.075000
      3 C16         -0.2640    -0.0010    -2.4770 ca         1 XPF      -0.075000
      4 C19         -3.0300     0.0040    -2.2160 ca         1 XPF      -0.200500
      5 C25          1.4020    -0.0110     3.6700 cg         1 XPF       0.265800
      6 C23          1.9370     0.0000     1.2440 cd         1 XPF      -0.107000
      7 C15         -1.0600     0.0100    -3.6010 ca         1 XPF      -0.200500
      8 C22          1.3640     0.0000     0.0000 cd         1 XPF      -0.156000
      9 C24          1.0490    -0.0090     2.2820 cc         1 XPF      -0.009100
     10 C17         -0.8500    -0.0010    -1.2090 ca         1 XPF      -0.032000
     11 C14         -2.4440     0.0090    -3.4750 ca         1 XPF       0.136100
     12 C5          -6.6250    -0.2890    -5.7320 c3         1 XPF       0.053400
     13 C3          -5.2730    -1.2590    -4.1220 c3         1 XPF      -0.016600
     14 C1          -5.3430     0.5680    -5.6920 c3         1 XPF       0.226500
     15 C2          -4.6360     0.1290    -4.3870 c3         1 XPF       0.106100
     16 C11         -2.5320     2.7080    -7.1090 c3         1 XPF      -0.166600
     17 C12         -3.9870     3.8560    -8.7820 c3         1 XPF      -0.166600
     18 C10         -3.9640     2.8610    -7.6210 c3         1 XPF       0.305100
     19 N26          1.6890     0.0050     4.7690 n1         1 XPF      -0.353800
     20 N6          -4.4990     0.2800    -6.8550 n7         1 XPF      -0.878100
     21 O8          -5.9630     1.3240    -8.4960 o          1 XPF      -0.644300
     22 O9          -3.6580     0.6640    -9.1050 o          1 XPF      -0.644300
     23 O4          -6.6450    -1.0840    -4.5350 os         1 XPF      -0.361600
     24 O13         -3.2250     0.0130    -4.5870 os         1 XPF      -0.326900
     25 S20         -0.5940    -0.0070     1.6540 ss         1 XPF      -0.063800
     26 S7          -4.5770     1.2510    -8.1940 s6         1 XPF       1.702900
     27 H1          -2.9840     0.0590    -0.3010 ha         1 XPF       0.147500
     28 H2           0.7910    -0.2320    -2.5480 ha         1 XPF       0.147500
     29 H3          -4.0900    -0.2120    -2.2770 ha         1 XPF       0.144000
     30 H4           2.9550     0.0170     1.6160 ha         1 XPF       0.163000
     31 H5          -0.6090    -0.2210    -4.5590 ha         1 XPF       0.144000
     32 H6           2.0460    -0.0630    -0.8390 ha         1 XPF       0.157000
     33 H7          -6.4570    -1.0150    -6.5180 h1         1 XPF       0.072700
     34 H8          -7.4460     0.2620    -6.1730 h1         1 XPF       0.072700
     35 H9          -6.0030    -1.1340    -3.3310 h1         1 XPF       0.118200
     36 H10         -4.5730    -1.9370    -3.6500 h1         1 XPF       0.118200
     37 H11         -5.5950     1.6200    -5.6490 h1         1 XPF       0.077700
     38 H12         -4.8620     0.8150    -3.5800 h1         1 XPF       0.070700
     39 H13         -2.6190     1.7350    -6.6400 hc         1 XPF       0.084867
     40 H14         -1.7580     2.5880    -7.8570 hc         1 XPF       0.084867
     41 H15         -2.3500     3.4640    -6.3550 hc         1 XPF       0.084867
     42 H16         -3.4550     4.6000    -8.2020 hc         1 XPF       0.084867
     43 H17         -3.6850     3.4060    -9.7200 hc         1 XPF       0.084867
     44 H18         -5.0320     4.1360    -8.8390 hc         1 XPF       0.084867
     45 H19         -4.4110     1.8810    -7.7390 h1         1 XPF      -0.764300
     46 H20         -3.8070    -0.3970    -6.6020 hn         1 XPF       0.456800
@<TRIPOS>BOND
     1    13    23 1
     2    13    15 1
     3    23    12 1
     4    19     5 3
     5    25     9 1
     6    25     1 1
     7    15    24 1
     8    15    14 1
     9     5     9 1
    10    24    11 1
    11     9     6 2
    12    11     4 ar
    13    11     7 ar
    14     4     2 ar
    15     7     3 ar
    16     2    10 ar
    17     3    10 ar
    18    10     1 1
    19     1     8 2
    20    12    14 1
    21    14    20 1
    22     6     8 1
    23    20    26 1
    24    22    26 2
    25    26    18 1
    26    26    21 2
    27    18    17 1
    28    18    16 1
    29     2    27 1
    30     3    28 1
    31     4    29 1
    32     6    30 1
    33     7    31 1
    34     8    32 1
    35    12    33 1
    36    12    34 1
    37    13    35 1
    38    13    36 1
    39    14    37 1
    40    15    38 1
    41    16    39 1
    42    16    40 1
    43    16    41 1
    44    17    42 1
    45    17    43 1
    46    17    44 1
    47    18    45 1
    48    20    46 1
@<TRIPOS>SUBSTRUCTURE
     1 XPF         1 TEMP              0 ****  ****    0 ROOT
