@<TRIPOS>MOLECULE
XPF
   47    49     1     0     0
SMALL
bcc


@<TRIPOS>ATOM
      1 C21        -0.0800    0.1370    0.4130 cc        1 XPF     -0.099100
      2 C18        -1.9870   -0.8140   -0.8380 ca        1 XPF     -0.095500
      3 C16        -0.5940    0.8670   -1.8910 ca        1 XPF     -0.095500
      4 C19        -2.7730   -0.8920   -1.9830 ca        1 XPF     -0.141000
      5 C25         0.9750   -0.0280    4.0820 cg        1 XPF      0.243800
      6 C23         1.7730    0.4750    1.7850 cd        1 XPF     -0.106000
      7 C15        -1.3740    0.8060   -3.0420 ca        1 XPF     -0.141000
      8 C22         1.2620    0.5000    0.4600 cd        1 XPF     -0.136000
      9 C24         0.7960    0.0930    2.6970 cc        1 XPF     -0.041100
     10 C17        -0.8910    0.0630   -0.7780 ca        1 XPF      0.017000
     11 C14        -2.4580   -0.0790   -3.0770 ca        1 XPF      0.067100
     12 C5         -6.4290   -0.1930   -5.7040 c3        1 XPF      0.097400
     13 C3         -5.0990   -1.6330   -4.4550 c3        1 XPF      0.088400
     14 C1         -5.2160    0.6770   -5.2840 c3        1 XPF      0.061500
     15 C2         -4.5660   -0.2140   -4.1700 c3        1 XPF      0.103100
     16 C11        -3.0260    1.3970   -9.1870 c3        1 XPF     -0.101600
     17 C12        -3.6920    3.7880   -9.3030 c3        1 XPF     -0.101600
     18 C10        -3.4570    2.6020   -8.3750 c3        1 XPF     -0.317900
     19 N26         1.1300   -0.1260    5.2320 n1        1 XPF     -0.322800
     20 N6         -4.3030    0.9520   -6.4290 n4        1 XPF     -0.705900
     21 O8         -5.1260    3.3660   -6.5820 o         1 XPF     -0.554800
     22 O9         -5.9050    1.7860   -8.2270 o         1 XPF     -0.554800
     23 O4         -5.9920   -1.5420   -5.5720 os        1 XPF     -0.391600
     24 O13        -3.1480   -0.1760   -4.2890 os        1 XPF     -0.369900
     25 S20        -0.6670   -0.2150    1.9440 ss        1 XPF      0.116200
     26 S7         -4.8810    2.3620   -7.5000 s6        1 XPF      1.356900
     27 H1         -2.2220   -1.4570    0.0260 ha        1 XPF      0.155500
     28 H2          0.2630    1.5580   -1.8510 ha        1 XPF      0.155500
     29 H3         -3.6220   -1.5900   -2.0340 ha        1 XPF      0.140000
     30 H4          2.8060    0.7230    2.0430 ha        1 XPF      0.176000
     31 H5         -1.1350    1.4290   -3.9140 ha        1 XPF      0.140000
     32 H6          1.8710    0.7640   -0.4090 ha        1 XPF      0.162000
     33 H7         -7.2800    0.0110   -5.0030 h1        1 XPF      0.101200
     34 H8         -6.7630   -0.0730   -6.7670 h1        1 XPF      0.101200
     35 H9         -5.6650   -2.0330   -3.5750 h1        1 XPF      0.091700
     36 H10        -4.2880   -2.3420   -4.7590 h1        1 XPF      0.091700
     37 H11        -5.5310    1.6700   -4.8530 hx        1 XPF      0.133700
     38 H12        -4.9050    0.1580   -3.1660 h1        1 XPF      0.106700
     39 H13        -3.8980    0.9510   -9.7280 hc        1 XPF      0.080200
     40 H14        -2.5440    0.6230   -8.5420 hc        1 XPF      0.080200
     41 H15        -2.2730    1.7040   -9.9570 hc        1 XPF      0.080200
     42 H16        -4.4630    3.5380  -10.0750 hc        1 XPF      0.080200
     43 H17        -2.7430    4.0420   -9.8390 hc        1 XPF      0.080200
     44 H18        -4.0100    4.6890   -8.7220 hc        1 XPF      0.080200
     45 H19        -2.5870    2.8950   -7.7130 h1        1 XPF      0.149700
     46 H20        -4.2300    0.0850   -6.9710 hn        1 XPF      0.467800
     47 H62        -3.3710    1.1250   -6.0350 hn        1 XPF      0.467800
@<TRIPOS>BOND
     1    1    8 2   
     2    1   10 1   
     3    1   25 1   
     4    2    4 ar  
     5    2   10 ar  
     6    2   27 1   
     7    3    7 ar  
     8    3   10 ar  
     9    3   28 1   
    10    4   11 ar  
    11    4   29 1   
    12    5    9 1   
    13    5   19 3   
    14    6    8 1   
    15    6    9 2   
    16    6   30 1   
    17    7   11 ar  
    18    7   31 1   
    19    8   32 1   
    20    9   25 1   
    21   11   24 1   
    22   12   14 1   
    23   12   23 1   
    24   12   33 1   
    25   12   34 1   
    26   13   15 1   
    27   13   23 1   
    28   13   35 1   
    29   13   36 1   
    30   14   15 1   
    31   14   20 1   
    32   14   37 1   
    33   15   24 1   
    34   15   38 1   
    35   16   18 1   
    36   16   39 1   
    37   16   40 1   
    38   16   41 1   
    39   17   18 1   
    40   17   42 1   
    41   17   43 1   
    42   17   44 1   
    43   18   26 1   
    44   18   45 1   
    45   20   26 1   
    46   20   46 1   
    47   20   47 1   
    48   21   26 2   
    49   22   26 2   
@<TRIPOS>SUBSTRUCTURE
     1 XPF         1 TEMP              0 ****  ****    0 ROOT
