@<TRIPOS>MOLECULE
molecule
   58    58     1     0     0
SMALL
bcc


@<TRIPOS>ATOM
      1 C20          0.0000     0.0000     0.0000 c3         1 XPG      -0.092100
      2 C19          1.5300     0.0000     0.0000 c3         1 XPG      -0.084400
      3 C18          2.0390     0.0000     1.4430 c3         1 XPG      -0.080400
      4 C17          3.5690    -0.0010     1.4430 c3         1 XPG      -0.084400
      5 C16          4.0790    -0.0000     2.8860 c3         1 XPG      -0.081400
      6 C15          5.6090    -0.0000     2.8860 c3         1 XPG       0.181300
      7 O15          6.0860    -1.2220     2.3170 oh         1 XPG      -0.608800
      8 C14          6.1110     0.1230     4.3020 c2         1 XPG      -0.197200
      9 C13          6.9430    -0.7680     4.7820 c2         1 XPG      -0.148200
     10 C12          7.4450    -0.6440     6.1980 c3         1 XPG      -0.034500
     11 C11          7.1720    -1.9490     6.9890 c3         1 XPG       0.149100
     12 O11          5.8600    -1.9370     7.5530 oh         1 XPG      -0.596800
     13 C10          8.2510    -1.8940     8.0990 c3         1 XPG      -0.224400
     14 C9           9.4720    -1.3090     7.4120 c          1 XPG       0.582100
     15 O9          10.6220    -1.4510     7.7540 o          1 XPG      -0.500100
     16 C8           8.9810    -0.5170     6.2190 c3         1 XPG      -0.175700
     17 C7           9.3830     0.9520     6.3670 c3         1 XPG      -0.065400
     18 C6          10.9040     1.0800     6.2610 c3         1 XPG      -0.093400
     19 C5          11.3040     2.5490     6.4100 c3         1 XPG      -0.080400
     20 C4          12.8260     2.6760     6.3030 c3         1 XPG      -0.087400
     21 C3          13.2260     4.1450     6.4520 c3         1 XPG      -0.063400
     22 C2          14.7470     4.2720     6.3460 c3         1 XPG      -0.182400
     23 C1          15.1420     5.7190     6.4910 c          1 XPG       0.890600
     24 O1A         16.4360     6.0710     6.4310 o          1 XPG      -0.858300
     25 O1B         14.2930     6.5620     6.6630 o          1 XPG      -0.858300
     26 H1          -0.3610    -0.8860     0.5090 hc         1 XPG       0.031367
     27 H2          -0.3610     0.8830     0.5130 hc         1 XPG       0.031367
     28 H3          -0.3610     0.0020    -1.0210 hc         1 XPG       0.031367
     29 H4           1.8910    -0.8850    -0.5110 hc         1 XPG       0.039700
     30 H5           1.8910     0.8850    -0.5110 hc         1 XPG       0.039700
     31 H6           1.6780     0.8850     1.9530 hc         1 XPG       0.041200
     32 H7           1.6770    -0.8840     1.9530 hc         1 XPG       0.041200
     33 H8           3.9310     0.8830     0.9320 hc         1 XPG       0.043700
     34 H9           3.9300    -0.8860     0.9330 hc         1 XPG       0.043700
     35 H10          3.7180    -0.8850     3.3970 hc         1 XPG       0.053700
     36 H11          3.7180     0.8840     3.3970 hc         1 XPG       0.053700
     37 H12          5.9700     0.8360     2.3000 h1         1 XPG       0.039700
     38 H13          6.7350    -1.0310     1.6610 ho         1 XPG       0.402000
     39 H14          5.7840     0.9490     4.9220 ha         1 XPG       0.134000
     40 H15          7.2700    -1.5940     4.1610 ha         1 XPG       0.140000
     41 H16          6.9890     0.2020     6.6970 hc         1 XPG       0.079700
     42 H17          7.3190    -2.8170     6.3570 h1         1 XPG       0.044700
     43 H18          5.5520    -2.8230     7.6530 ho         1 XPG       0.400000
     44 H19          8.4660    -2.8900     8.4660 hc         1 XPG       0.076700
     45 H20          7.9270    -1.2480     8.9060 hc         1 XPG       0.076700
     46 H21          9.3970    -0.9290     5.3080 hc         1 XPG       0.081700
     47 H22          9.0560     1.3200     7.3320 hc         1 XPG       0.046200
     48 H23          8.9160     1.5350     5.5820 hc         1 XPG       0.046200
     49 H24         11.3710     0.4970     7.0450 hc         1 XPG       0.050200
     50 H25         11.2310     0.7130     5.2950 hc         1 XPG       0.050200
     51 H26         10.9780     2.9160     7.3750 hc         1 XPG       0.036700
     52 H27         10.8370     3.1320     5.6250 hc         1 XPG       0.036700
     53 H28         13.1520     2.3090     5.3370 hc         1 XPG       0.031200
     54 H29         13.2930     2.0930     7.0870 hc         1 XPG       0.031200
     55 H30         12.8990     4.5120     7.4170 hc         1 XPG       0.044200
     56 H31         12.7590     4.7270     5.6670 hc         1 XPG       0.044200
     57 H32         15.2140     3.6900     7.1310 hc         1 XPG       0.027200
     58 H33         15.0730     3.9050     5.3800 hc         1 XPG       0.027200
@<TRIPOS>BOND
     1     7     6 1
     2     3     4 1
     3     3     2 1
     4     1     2 1
     5     5     4 1
     6     5     6 1
     7     6     8 1
     8     8     9 2
     9     9    10 1
    10    12    11 1
    11    11    10 1
    12    11    13 1
    13    10    16 1
    14    16    14 1
    15    16    17 1
    16    13    14 1
    17    14    15 2
    18    17    18 1
    19    18    19 1
    20    19    20 1
    21    20    21 1
    22    21    22 1
    23    22    23 1
    24    25    23 1
    25    23    24 1
    26     1    26 1
    27     1    27 1
    28     1    28 1
    29     2    29 1
    30     2    30 1
    31     3    31 1
    32     3    32 1
    33     4    33 1
    34     4    34 1
    35     5    35 1
    36     5    36 1
    37     6    37 1
    38     7    38 1
    39     8    39 1
    40     9    40 1
    41    10    41 1
    42    11    42 1
    43    12    43 1
    44    13    44 1
    45    13    45 1
    46    16    46 1
    47    17    47 1
    48    17    48 1
    49    18    49 1
    50    18    50 1
    51    19    51 1
    52    19    52 1
    53    20    53 1
    54    20    54 1
    55    21    55 1
    56    21    56 1
    57    22    57 1
    58    22    58 1
@<TRIPOS>SUBSTRUCTURE
     1 XPG         1 TEMP              0 ****  ****    0 ROOT
