@<TRIPOS>MOLECULE
XPG
   58    58     1     0     0
SMALL
bcc


@<TRIPOS>ATOM
      1 C20         0.9510    1.7070   -0.0930 c3        1 XPG     -0.092100
      2 C19         2.2000    0.8700    0.0090 c3        1 XPG     -0.080400
      3 C18         2.5570    0.5780    1.4510 c3        1 XPG     -0.078400
      4 C17         3.8090   -0.2670    1.5460 c3        1 XPG     -0.079400
      5 C16         4.1700   -0.5470    2.9890 c3        1 XPG     -0.070400
      6 C15         5.4030   -1.4450    3.0870 c3        1 XPG      0.174300
      7 O15         4.9980   -2.7430    2.6540 oh        1 XPG     -0.602800
      8 C14         5.9070   -1.4930    4.4950 c2        1 XPG     -0.222200
      9 C13         7.0310   -0.8910    4.8920 c2        1 XPG     -0.142200
     10 C12         7.5120   -0.8840    6.2970 c3        1 XPG     -0.037500
     11 C11         7.2230   -2.1980    7.0530 c3        1 XPG      0.144100
     12 O11         6.0050   -2.0260    7.7590 oh        1 XPG     -0.593800
     13 C10         8.4060   -2.4340    7.9950 c3        1 XPG     -0.233400
     14 C9          9.5250   -1.5530    7.5030 c         1 XPG      0.580100
     15 O9         10.6740   -1.5970    7.9380 o         1 XPG     -0.514100
     16 C8          9.0300   -0.6550    6.3900 c3        1 XPG     -0.162700
     17 C7          9.3570    0.8110    6.6120 c3        1 XPG     -0.063400
     18 C6         10.8070    1.1270    6.3090 c3        1 XPG     -0.087400
     19 C5         11.0900    2.6020    6.4940 c3        1 XPG     -0.077400
     20 C4         12.5170    2.9460    6.1210 c3        1 XPG     -0.078400
     21 C3         12.7710    4.4350    6.2300 c3        1 XPG     -0.066400
     22 C2         14.1870    4.7950    5.8540 c3        1 XPG     -0.194400
     23 C1         14.3640    6.3200    5.7340 c         1 XPG      0.907600
     24 O1A        15.3940    6.8350    6.2560 o         1 XPG     -0.853300
     25 O1B        13.4880    6.9820    5.1050 o         1 XPG     -0.853300
     26 H1          0.7070    1.9110   -1.1630 hc        1 XPG      0.031033
     27 H2          1.0880    2.6840    0.4300 hc        1 XPG      0.031033
     28 H3          0.0840    1.1800    0.3720 hc        1 XPG      0.031033
     29 H4          2.0530   -0.0960   -0.5420 hc        1 XPG      0.038700
     30 H5          3.0540    1.4050   -0.4860 hc        1 XPG      0.038700
     31 H6          1.7050    0.0440    1.9480 hc        1 XPG      0.039200
     32 H7          2.7100    1.5430    2.0020 hc        1 XPG      0.039200
     33 H8          3.6560   -1.2410    1.0110 hc        1 XPG      0.046200
     34 H9          4.6590    0.2620    1.0400 hc        1 XPG      0.046200
     35 H10         3.3120   -1.0500    3.5050 hc        1 XPG      0.053700
     36 H11         4.3860    0.4120    3.5260 hc        1 XPG      0.053700
     37 H12         6.2070   -1.0680    2.3900 h1        1 XPG      0.037700
     38 H13         5.7530   -3.3270    2.7880 ho        1 XPG      0.398000
     39 H14         5.2690   -2.0530    5.1990 ha        1 XPG      0.142000
     40 H15         7.6550   -0.3170    4.1850 ha        1 XPG      0.132000
     41 H16         6.9760   -0.0510    6.8410 hc        1 XPG      0.094700
     42 H17         7.1160   -3.0570    6.3340 h1        1 XPG      0.041700
     43 H18         5.8720   -2.8270    8.2810 ho        1 XPG      0.399000
     44 H19         8.1410   -2.1450    9.0450 hc        1 XPG      0.080200
     45 H20         8.7240   -3.5060    7.9990 hc        1 XPG      0.080200
     46 H21         9.5280   -0.9990    5.4390 hc        1 XPG      0.082700
     47 H22         8.6970    1.4270    5.9450 hc        1 XPG      0.046200
     48 H23         9.1220    1.0950    7.6700 hc        1 XPG      0.046200
     49 H24        11.4710    0.5210    6.9810 hc        1 XPG      0.047200
     50 H25        11.0440    0.8310    5.2520 hc        1 XPG      0.047200
     51 H26        10.3860    3.2040    5.8610 hc        1 XPG      0.036200
     52 H27        10.9020    2.8900    7.5620 hc        1 XPG      0.036200
     53 H28        13.2250    2.3900    6.7900 hc        1 XPG      0.027700
     54 H29        12.7210    2.6080    5.0710 hc        1 XPG      0.027700
     55 H30        12.0690    4.9970    5.5580 hc        1 XPG      0.043700
     56 H31        12.5650    4.7740    7.2790 hc        1 XPG      0.043700
     57 H32        14.4470    4.3440    4.8630 hc        1 XPG      0.019200
     58 H33        14.9060    4.3970    6.6120 hc        1 XPG      0.019200
@<TRIPOS>BOND
     1    1    2 1   
     2    1   26 1   
     3    1   27 1   
     4    1   28 1   
     5    2    3 1   
     6    2   29 1   
     7    2   30 1   
     8    3    4 1   
     9    3   31 1   
    10    3   32 1   
    11    4    5 1   
    12    4   33 1   
    13    4   34 1   
    14    5    6 1   
    15    5   35 1   
    16    5   36 1   
    17    6    7 1   
    18    6    8 1   
    19    6   37 1   
    20    7   38 1   
    21    8    9 2   
    22    8   39 1   
    23    9   10 1   
    24    9   40 1   
    25   10   11 1   
    26   10   16 1   
    27   10   41 1   
    28   11   12 1   
    29   11   13 1   
    30   11   42 1   
    31   12   43 1   
    32   13   14 1   
    33   13   44 1   
    34   13   45 1   
    35   14   15 2   
    36   14   16 1   
    37   16   17 1   
    38   16   46 1   
    39   17   18 1   
    40   17   47 1   
    41   17   48 1   
    42   18   19 1   
    43   18   49 1   
    44   18   50 1   
    45   19   20 1   
    46   19   51 1   
    47   19   52 1   
    48   20   21 1   
    49   20   53 1   
    50   20   54 1   
    51   21   22 1   
    52   21   55 1   
    53   21   56 1   
    54   22   23 1   
    55   22   57 1   
    56   22   58 1   
    57   23   24 1   
    58   23   25 1   
@<TRIPOS>SUBSTRUCTURE
     1 XPG         1 TEMP              0 ****  ****    0 ROOT
