@<TRIPOS>MOLECULE
XPM
   51    50     1     0     0
SMALL
bcc


@<TRIPOS>ATOM
      1 C1          0.2490    0.1830   -0.0260 c         1 XPM      0.928100
      2 O1          1.0340    1.1660   -0.1880 o         1 XPM     -0.889050
      3 C2         -0.6640    0.0820    1.2100 c3        1 XPM     -0.257700
      4 O2          0.2630   -0.8030   -0.8330 o         1 XPM     -0.889050
      5 C3          0.2070   -0.0110    2.4530 c3        1 XPM     -0.043400
      6 C4          0.9830   -1.3140    2.4920 c3        1 XPM     -0.086400
      7 C5          2.0040   -1.3220    3.6100 c3        1 XPM     -0.074400
      8 C6          2.7710   -2.6270    3.6530 c3        1 XPM     -0.079400
      9 C7          3.8030   -2.6310    4.7600 c3        1 XPM     -0.078400
     10 C8          4.5700   -3.9360    4.8000 c3        1 XPM     -0.079400
     11 C9          5.6030   -3.9380    5.9060 c3        1 XPM     -0.078400
     12 CA          6.3700   -5.2420    5.9440 c3        1 XPM     -0.079400
     13 CB          7.4030   -5.2440    7.0500 c3        1 XPM     -0.078400
     14 CC          8.1690   -6.5480    7.0880 c3        1 XPM     -0.079400
     15 CD          9.2020   -6.5500    8.1940 c3        1 XPM     -0.079400
     16 CE          9.9680   -7.8540    8.2310 c3        1 XPM     -0.079400
     17 CF         11.0010   -7.8570    9.3380 c3        1 XPM     -0.080400
     18 CG         11.7670   -9.1540    9.3790 c3        1 XPM     -0.091100
     19 C2A        -1.7070    1.1980    1.3840 c         1 XPM      0.928100
     20 O2A        -1.5700    2.0550    2.3150 o         1 XPM     -0.889050
     21 O2B        -2.7520    1.1850    0.6610 o         1 XPM     -0.889050
     22 H2         -1.2490   -0.8730    1.1000 hc        1 XPM      0.022700
     23 H3         -0.4280    0.0800    3.3710 hc        1 XPM      0.033200
     24 H3A         0.9140    0.8590    2.4450 hc        1 XPM      0.033200
     25 H4          0.2750   -2.1730    2.6290 hc        1 XPM      0.041700
     26 H4A         1.4920   -1.4560    1.5000 hc        1 XPM      0.041700
     27 H5          2.7200   -0.4710    3.4640 hc        1 XPM      0.026700
     28 H5A         1.4900   -1.1570    4.5940 hc        1 XPM      0.026700
     29 H6          2.0560   -3.4780    3.8040 hc        1 XPM      0.034700
     30 H6A         3.2760   -2.7930    2.6650 hc        1 XPM      0.034700
     31 H7          4.5180   -1.7800    4.6070 hc        1 XPM      0.032700
     32 H7A         3.2970   -2.4630    5.7470 hc        1 XPM      0.032700
     33 H8          5.0750   -4.1020    3.8120 hc        1 XPM      0.036200
     34 H8A         3.8550   -4.7870    4.9520 hc        1 XPM      0.036200
     35 H9          6.3170   -3.0860    5.7530 hc        1 XPM      0.035700
     36 H9A         5.0970   -3.7700    6.8930 hc        1 XPM      0.035700
     37 HA          5.6550   -6.0940    6.0950 hc        1 XPM      0.037200
     38 HAA         6.8760   -5.4090    4.9570 hc        1 XPM      0.037200
     39 HB          6.8960   -5.0770    8.0370 hc        1 XPM      0.037200
     40 HBA         8.1170   -4.3920    6.8980 hc        1 XPM      0.037200
     41 HC          8.6760   -6.7140    6.1000 hc        1 XPM      0.038200
     42 HCA         7.4550   -7.4000    7.2390 hc        1 XPM      0.038200
     43 HD          8.6950   -6.3840    9.1810 hc        1 XPM      0.038200
     44 HDA         9.9160   -5.6980    8.0430 hc        1 XPM      0.038200
     45 HE         10.4760   -8.0200    7.2440 hc        1 XPM      0.038200
     46 HEA         9.2540   -8.7060    8.3820 hc        1 XPM      0.038200
     47 HF         10.4920   -7.6890   10.3240 hc        1 XPM      0.037200
     48 HFA        11.7130   -7.0030    9.1860 hc        1 XPM      0.037200
     49 HG         12.5220   -9.1350   10.2010 hc        1 XPM      0.029033
     50 HGA        11.0760  -10.0140    9.5530 hc        1 XPM      0.029033
     51 HGB        12.3010   -9.3260    8.4130 hc        1 XPM      0.029033
@<TRIPOS>BOND
     1    1    2 1   
     2    1    3 1   
     3    1    4 1   
     4    3    5 1   
     5    3   19 1   
     6    3   22 1   
     7    5    6 1   
     8    5   23 1   
     9    5   24 1   
    10    6    7 1   
    11    6   25 1   
    12    6   26 1   
    13    7    8 1   
    14    7   27 1   
    15    7   28 1   
    16    8    9 1   
    17    8   29 1   
    18    8   30 1   
    19    9   10 1   
    20    9   31 1   
    21    9   32 1   
    22   10   11 1   
    23   10   33 1   
    24   10   34 1   
    25   11   12 1   
    26   11   35 1   
    27   11   36 1   
    28   12   13 1   
    29   12   37 1   
    30   12   38 1   
    31   13   14 1   
    32   13   39 1   
    33   13   40 1   
    34   14   15 1   
    35   14   41 1   
    36   14   42 1   
    37   15   16 1   
    38   15   43 1   
    39   15   44 1   
    40   16   17 1   
    41   16   45 1   
    42   16   46 1   
    43   17   18 1   
    44   17   47 1   
    45   17   48 1   
    46   18   49 1   
    47   18   50 1   
    48   18   51 1   
    49   19   20 1   
    50   19   21 1   
@<TRIPOS>SUBSTRUCTURE
     1 XPM         1 TEMP              0 ****  ****    0 ROOT
