@<TRIPOS>MOLECULE
molecule
   51    50     1     0     0
SMALL
bcc


@<TRIPOS>ATOM
      1 C1           0.0000     0.0000     0.0000 c          1 XPM       0.916100
      2 O1           1.2080     0.0000     0.0000 o          1 XPM      -0.880800
      3 C2          -0.7530     0.0000     1.3060 c3         1 XPM      -0.263700
      4 O2          -0.6720     0.0060    -1.1610 o          1 XPM      -0.880800
      5 C3           0.2410    -0.0010     2.4690 c3         1 XPM      -0.033400
      6 C4           1.0360    -1.3090     2.4590 c3         1 XPM      -0.091400
      7 C5           2.0300    -1.3100     3.6210 c3         1 XPM      -0.079400
      8 C6           2.8260    -2.6160     3.6120 c3         1 XPM      -0.082400
      9 C7           3.8200    -2.6180     4.7750 c3         1 XPM      -0.083400
     10 C8           4.6140    -3.9250     4.7660 c3         1 XPM      -0.082400
     11 C9           5.6090    -3.9260     5.9280 c3         1 XPM      -0.082400
     12 CA           6.4040    -5.2340     5.9190 c3         1 XPM      -0.082400
     13 CB           7.3990    -5.2340     7.0810 c3         1 XPM      -0.082400
     14 CC           8.1920    -6.5410     7.0720 c3         1 XPM      -0.082400
     15 CD           9.1870    -6.5420     8.2340 c3         1 XPM      -0.082400
     16 CE           9.9820    -7.8490     8.2240 c3         1 XPM      -0.081400
     17 CF          10.9770    -7.8500     9.3870 c3         1 XPM      -0.084400
     18 CG          11.7710    -9.1570     9.3780 c3         1 XPM      -0.092100
     19 C2A         -1.6200     1.2300     1.3870 c          1 XPM       0.916100
     20 O2A         -1.4580     2.0250     2.2820 o          1 XPM      -0.880800
     21 O2B         -2.5700     1.4430     0.4630 o          1 XPM      -0.880800
     22 H2          -1.3760    -0.8840     1.3630 hc         1 XPM       0.025700
     23 H3           0.9210     0.8350     2.3630 hc         1 XPM       0.026200
     24 H3A         -0.2980     0.0870     3.4040 hc         1 XPM       0.026200
     25 H4           0.3560    -2.1460     2.5650 hc         1 XPM       0.048200
     26 H4A          1.5740    -1.3980     1.5230 hc         1 XPM       0.048200
     27 H5           1.4920    -1.2210     4.5570 hc         1 XPM       0.026700
     28 H5A          2.7100    -0.4730     3.5150 hc         1 XPM       0.026700
     29 H6           2.1460    -3.4530     3.7180 hc         1 XPM       0.036200
     30 H6A          3.3640    -2.7050     2.6770 hc         1 XPM       0.036200
     31 H7           4.5000    -1.7810     4.6690 hc         1 XPM       0.034200
     32 H7A          3.2810    -2.5290     5.7110 hc         1 XPM       0.034200
     33 H8           5.1520    -4.0140     3.8300 hc         1 XPM       0.037700
     34 H8A          3.9340    -4.7620     4.8720 hc         1 XPM       0.037700
     35 H9           5.0710    -3.8370     6.8640 hc         1 XPM       0.037200
     36 H9A          6.2890    -3.0900     5.8210 hc         1 XPM       0.037200
     37 HA           6.9420    -5.3220     4.9830 hc         1 XPM       0.038700
     38 HAA          5.7240    -6.0700     6.0250 hc         1 XPM       0.038700
     39 HB           6.8600    -5.1450     8.0170 hc         1 XPM       0.038700
     40 HBA          8.0790    -4.3980     6.9750 hc         1 XPM       0.038700
     41 HC           8.7310    -6.6300     6.1360 hc         1 XPM       0.040200
     42 HCA          7.5120    -7.3780     7.1780 hc         1 XPM       0.040200
     43 HD           8.6490    -6.4530     9.1700 hc         1 XPM       0.039200
     44 HDA          9.8670    -5.7050     8.1280 hc         1 XPM       0.039200
     45 HE           9.3020    -8.6860     8.3300 hc         1 XPM       0.040200
     46 HEA         10.5200    -7.9380     7.2890 hc         1 XPM       0.040200
     47 HF          11.6570    -7.0130     9.2810 hc         1 XPM       0.038700
     48 HFA         10.4380    -7.7610    10.3230 hc         1 XPM       0.038700
     49 HG          12.4760    -9.1580    10.2010 hc         1 XPM       0.029700
     50 HGA         11.0910    -9.9940     9.4840 hc         1 XPM       0.029700
     51 HGB         12.3100    -9.2460     8.4420 hc         1 XPM       0.029700
@<TRIPOS>BOND
     1     1     2 1
     2     1     3 1
     3     1     4 1
     4     3     5 1
     5     3    19 1
     6     5     6 1
     7     6     7 1
     8     7     8 1
     9     8     9 1
    10     9    10 1
    11    10    11 1
    12    11    12 1
    13    12    13 1
    14    13    14 1
    15    14    15 1
    16    15    16 1
    17    16    17 1
    18    17    18 1
    19    19    20 1
    20    19    21 1
    21     3    22 1
    22     5    23 1
    23     5    24 1
    24     6    25 1
    25     6    26 1
    26     7    27 1
    27     7    28 1
    28     8    29 1
    29     8    30 1
    30     9    31 1
    31     9    32 1
    32    10    33 1
    33    10    34 1
    34    11    35 1
    35    11    36 1
    36    12    37 1
    37    12    38 1
    38    13    39 1
    39    13    40 1
    40    14    41 1
    41    14    42 1
    42    15    43 1
    43    15    44 1
    44    16    45 1
    45    16    46 1
    46    17    47 1
    47    17    48 1
    48    18    49 1
    49    18    50 1
    50    18    51 1
@<TRIPOS>SUBSTRUCTURE
     1 XPM         1 TEMP              0 ****  ****    0 ROOT
