@<TRIPOS>MOLECULE
molecule
    8     7     1     0     0
SMALL
bcc


@<TRIPOS>ATOM
      1 C            0.0000     0.0000     0.0000 c          1 XPO       0.703900
      2 O            1.2080     0.0000     0.0000 o          1 XPO      -0.658000
      3 P           -2.2800     0.0070     1.0770 p5         1 XPO       1.132900
      4 O1          -2.8960    -0.1260     2.5590 o          1 XPO      -0.892500
      5 O2          -0.6730     0.0000     1.1620 os         1 XPO      -0.508500
      6 O3          -2.7350    -1.1320     0.2500 o          1 XPO      -0.892500
      7 O4          -2.7760     1.3870     0.4120 o          1 XPO      -0.892500
      8 H1          -0.5410     0.0010    -0.9380 h5         1 XPO       0.008200
@<TRIPOS>BOND
     1     2     1 2
     2     1     5 1
     3     6     3 1
     4     5     3 1
     5     3     4 1
     6     3     7 1
     7     1     8 1
@<TRIPOS>SUBSTRUCTURE
     1 XPO         1 TEMP              0 ****  ****    0 ROOT
