@<TRIPOS>MOLECULE
XPP
   89    92     1     0     0
SMALL
bcc


@<TRIPOS>ATOM
      1 N1           0.0000     0.0000     0.0000 ns         1 XPP       0.047900
      2 C1           2.2360     0.0000     1.1380 cc         1 XPP       0.079100
      3 C8           2.2060    -0.0070    -1.0960 cd         1 XPP      -0.314300
      4 N3           3.5060    -0.0050    -0.6960 na         1 XPP       0.483900
      5 C6           1.4070     0.0000     0.0000 cc         1 XPP      -0.203400
      6 C9           4.6730    -0.0110    -1.5830 c3         1 XPP      -0.024400
      7 C10          3.5450     0.0030     0.6860 cd         1 XPP      -0.414900
      8 C11          4.7110     0.0070     1.4920 c          1 XPP       0.622700
      9 O2           5.2080     1.0640     1.8390 o          1 XPP      -0.651100
     10 N4           5.2690    -1.1580     1.8760 ns         1 XPP       0.033900
     11 C12          6.3570    -1.1570     2.7680 cc         1 XPP      -0.173400
     12 C13          6.9610    -0.0250     3.3340 cc         1 XPP      -0.144000
     13 C14          7.0120    -2.2530     3.2350 cd         1 XPP      -0.360300
     14 N5           8.0060    -1.8460     4.0680 na         1 XPP       0.532900
     15 C15          8.9400    -2.7260     4.7740 c3         1 XPP      -0.034400
     16 C16          7.9840    -0.4730     4.1430 cd         1 XPP      -0.386900
     17 C23          8.8890     0.3650     4.9370 c          1 XPP       0.642700
     18 O3           9.8150    -0.1430     5.5410 o          1 XPP      -0.679100
     19 N7          10.6490    10.7180     8.2850 n3         1 XPP      -0.525600
     20 C21         11.3450    11.4470     9.3540 c3         1 XPP       0.167600
     21 C22         11.1930    11.2130     7.0130 c3         1 XPP       0.167600
     22 C18         10.6070     6.9870     7.6000 c3         1 XPP       0.051000
     23 C19         10.1840     8.4520     7.4810 c3         1 XPP      -0.048400
     24 N6           9.7720     6.1640     6.7210 ns         1 XPP      -0.199900
     25 N           -2.9550     0.0290    -2.2730 na         1 XPP       0.531900
     26 C2          -4.2440     0.1890    -1.8730 cc         1 XPP      -0.352300
     27 C           -4.2620     0.3860    -0.5280 cd         1 XPP      -0.175400
     28 C32         -2.9360     0.3420    -0.0710 cd         1 XPP      -0.141000
     29 C4          -2.1360     0.1150    -1.1710 cc         1 XPP      -0.390900
     30 C5          -0.6750    -0.0060    -1.1670 c          1 XPP       0.624700
     31 O1          -0.0700    -0.1140    -2.2180 o          1 XPP      -0.696100
     32 N9          -6.4890     1.1940     3.7770 na         1 XPP       0.372100
     33 C27         -7.7880     1.3610     4.1440 cc         1 XPP      -0.430600
     34 C26         -8.5350     1.2590     3.0170 cd         1 XPP       0.317200
     35 N10         -7.7180     1.0410     1.9890 nd         1 XPP      -0.604000
     36 C25         -6.4770     1.0020     2.4230 cc         1 XPP       0.121000
     37 C24         -5.2790     0.7800     1.5940 c          1 XPP       0.513600
     38 O4          -4.1770     0.7620     2.1090 o          1 XPP      -0.684100
     39 O5          10.8320     4.3140     7.3340 o          1 XPP      -0.640100
     40 C31          9.9660     4.8320     6.6610 c          1 XPP       0.574100
     41 C29          9.5300     2.5200     5.8760 c3         1 XPP       0.063000
     42 N11          8.6950     1.6980     4.9970 ns         1 XPP      -0.192900
     43 O6           1.8290     0.0060     2.4340 oh         1 XPP      -0.471100
     44 HN1         -0.5000    -0.0270     0.8670 hn         1 XPP       0.176500
     45 H8           1.8640    -0.0120    -2.1240 h4         1 XPP       0.204000
     46 H91          5.2970     0.8470    -1.3640 h1         1 XPP       0.026367
     47 H92          5.2410    -0.9200    -1.4260 h1         1 XPP       0.026367
     48 H93          4.3430     0.0360    -2.6140 h1         1 XPP       0.026367
     49 HN4          4.8960    -2.0250     1.5440 hn         1 XPP       0.161500
     50 H13          6.6760     1.0070     3.1700 ha         1 XPP       0.172000
     51 H14          6.7800    -3.2810     2.9840 h4         1 XPP       0.148000
     52 H151         9.9530    -2.5030     4.4610 h1         1 XPP       0.032700
     53 H152         8.8490    -2.5670     5.8420 h1         1 XPP       0.032700
     54 H153         8.7100    -3.7580     4.5420 h1         1 XPP       0.032700
     55 H211        12.4130    11.2930     9.2600 h1         1 XPP       0.004200
     56 H212        11.1250    12.5050     9.2720 h1         1 XPP       0.004200
     57 H213        11.0110    11.0820    10.3170 h1         1 XPP       0.004200
     58 H221        10.5650    10.8760     6.1970 h1         1 XPP       0.004200
     59 H222        11.2170    12.2960     7.0270 h1         1 XPP       0.004200
     60 H223        12.1970    10.8300     6.8770 h1         1 XPP       0.004200
     61 H201        12.0950     9.2110     8.1090 h1         1 XPP       0.016200
     62 H202        10.9340     8.9820     9.4250 h1         1 XPP       0.016200
     63 H181        11.6460     6.8870     7.3090 h1         1 XPP       0.026700
     64 H182        10.4860     6.6580     8.6250 h1         1 XPP       0.026700
     65 H191        10.3050     8.7800     6.4560 hc         1 XPP       0.024700
     66 H192         9.1450     8.5520     7.7710 hc         1 XPP       0.024700
     67 HN6          9.0610     6.5920     6.1620 hn         1 XPP       0.174500
     68 H31         -1.9650    -1.1390    -3.6990 h1         1 XPP       0.032033
     69 H32A        -1.8690     0.6070    -3.9660 h1         1 XPP       0.032033
     70 H33         -3.3760    -0.2580    -4.3020 h1         1 XPP       0.032033
     71 H2          -5.1130     0.1620    -2.5180 h4         1 XPP       0.150000
     72 HN8         -6.3110     0.6130    -0.1600 hn         1 XPP       0.178500
     73 H32         -2.6040     0.4610     0.9530 ha         1 XPP       0.174000
     74 H281        -4.6570     2.0210     4.3570 h1         1 XPP       0.034367
     75 H282        -4.8020     0.2750     4.6060 h1         1 XPP       0.034367
     76 H283        -5.6480     1.3950     5.6820 h1         1 XPP       0.034367
     77 H27         -8.1560     1.5380     5.1470 h4         1 XPP       0.156000
     78 H26         -9.6140     1.3430     2.9630 h4         1 XPP       0.004100
     79 H301         9.2290     4.3140     4.7310 hc         1 XPP       0.029700
     80 H302         8.0680     4.0860     6.0460 hc         1 XPP       0.029700
     81 H291         9.4080     2.1920     6.9010 h1         1 XPP       0.041700
     82 H292        10.5690     2.4190     5.5860 h1         1 XPP       0.041700
     83 HN11         8.0040     2.1290     4.4160 hn         1 XPP       0.182500
     84 HO6          1.7300     0.8960     2.7280 ho         1 XPP       0.401000
     85 C3          -2.5130    -0.2060    -3.6490 c3         1 XPP      -0.034400
     86 N8          -5.4040     0.5970     0.2640 ns         1 XPP       0.057900
     87 C30          9.1070     3.9850     5.7560 c3         1 XPP      -0.112400
     88 C28         -5.3230     1.2230     4.6630 c3         1 XPP      -0.024400
     89 C20         11.0560     9.3110     8.4000 c3         1 XPP       0.142800
@<TRIPOS>BOND
     1     1     5 1   
     2     1    30 1   
     3     1    44 1   
     4     2     5 1   
     5     2     7 2   
     6     2    43 1   
     7     3     4 1   
     8     3     5 2   
     9     3    45 1   
    10     4     6 1   
    11     4     7 1   
    12     6    46 1   
    13     6    47 1   
    14     6    48 1   
    15     7     8 1   
    16     8     9 2   
    17     8    10 1   
    18    10    11 1   
    19    10    49 1   
    20    11    12 1   
    21    11    13 2   
    22    12    16 2   
    23    12    50 1   
    24    13    14 1   
    25    13    51 1   
    26    14    15 1   
    27    14    16 1   
    28    15    52 1   
    29    15    53 1   
    30    15    54 1   
    31    16    17 1   
    32    17    18 2   
    33    17    42 1   
    34    19    20 1   
    35    19    21 1   
    36    19    89 1   
    37    20    55 1   
    38    20    56 1   
    39    20    57 1   
    40    21    58 1   
    41    21    59 1   
    42    21    60 1   
    43    22    23 1   
    44    22    24 1   
    45    22    63 1   
    46    22    64 1   
    47    23    65 1   
    48    23    66 1   
    49    23    89 1   
    50    24    40 1   
    51    24    67 1   
    52    25    26 1   
    53    25    29 1   
    54    25    85 1   
    55    26    27 2   
    56    26    71 1   
    57    27    28 1   
    58    27    86 1   
    59    28    29 2   
    60    28    73 1   
    61    29    30 1   
    62    30    31 2   
    63    32    33 1   
    64    32    36 1   
    65    32    88 1   
    66    33    34 2   
    67    33    77 1   
    68    34    35 1   
    69    34    78 1   
    70    35    36 2   
    71    36    37 1   
    72    37    38 2   
    73    37    86 1   
    74    39    40 2   
    75    40    87 1   
    76    41    42 1   
    77    41    81 1   
    78    41    82 1   
    79    41    87 1   
    80    42    83 1   
    81    43    84 1   
    82    61    89 1   
    83    62    89 1   
    84    68    85 1   
    85    69    85 1   
    86    70    85 1   
    87    72    86 1   
    88    74    88 1   
    89    75    88 1   
    90    76    88 1   
    91    79    87 1   
    92    80    87 1   
@<TRIPOS>SUBSTRUCTURE
     1 XPP         1 TEMP              0 ****  ****    0 ROOT
