@<TRIPOS>MOLECULE
molecule
   32    31     1     0     0
SMALL
bcc


@<TRIPOS>ATOM
      1 Cl1          0.0000     0.0000     0.0000 cl         1 XPT      -0.326900
      2 C3           2.0210     0.0000     1.8100 c3         1 XPT       0.016067
      3 C4           3.0940    -0.9630     2.3200 c3         1 XPT      -0.077400
      4 C5           2.9760    -1.1010     3.8390 c3         1 XPT      -0.090433
      5 C6           2.0200    -1.5680    -0.9050 c3         1 XPT       0.016067
      6 C7           0.5770    -2.0090    -1.1600 c3         1 XPT      -0.077400
      7 C8           0.5760    -3.3340    -1.9240 c3         1 XPT      -0.090433
      8 C9           3.8290     0.0280    -0.0150 c3         1 XPT       0.016067
      9 C10          4.3130     1.3260    -0.6560 c3         1 XPT      -0.077400
     10 C11          5.8400     1.3620    -0.6450 c3         1 XPT      -0.090433
     11 SN1          2.0200     0.0000     0.0000 s6         1 XPT      -0.417500
     12 H3           1.0400    -0.3840     2.0640 h1         1 XPT       0.089867
     13 H3A          2.1580     0.9710     2.2710 h1         1 XPT       0.089867
     14 H4           2.8830    -1.9630     1.9580 hc         1 XPT       0.059033
     15 H4A          4.0650    -0.6460     1.9600 hc         1 XPT       0.059033
     16 H5           3.1120    -0.1310     4.3020 hc         1 XPT       0.034144
     17 H5A          1.9950    -1.4870     4.0920 hc         1 XPT       0.034144
     18 H5B          3.7360    -1.7830     4.2000 hc         1 XPT       0.034144
     19 H6           2.5250    -1.4220    -1.8520 h1         1 XPT       0.089867
     20 H6A          2.5350    -2.3310    -0.3340 h1         1 XPT       0.089867
     21 H7           0.0610    -2.1210    -0.2140 hc         1 XPT       0.059033
     22 H7A          0.0710    -1.2620    -1.7600 hc         1 XPT       0.059033
     23 H8          -0.4430    -3.6140    -2.1610 hc         1 XPT       0.034144
     24 H8A          1.0290    -4.1050    -1.3110 hc         1 XPT       0.034144
     25 H8B          1.1430    -3.2230    -2.8410 hc         1 XPT       0.034144
     26 H9           4.2000    -0.0330     1.0010 h1         1 XPT       0.089867
     27 H9A          4.1990    -0.8160    -0.5850 h1         1 XPT       0.089867
     28 H10          3.9580     1.3790    -1.6790 hc         1 XPT       0.059033
     29 H10A         3.9280     2.1710    -0.0970 hc         1 XPT       0.059033
     30 H11          6.2250     0.4820    -1.1450 hc         1 XPT       0.034144
     31 H11A         6.1930     1.3790     0.3790 hc         1 XPT       0.034144
     32 H11B         6.1840     2.2500    -1.1610 hc         1 XPT       0.034144
@<TRIPOS>BOND
     1    11     1 1
     2    11     2 1
     3     2     3 1
     4     2    12 1
     5     2    13 1
     6     3     4 1
     7     3    14 1
     8     3    15 1
     9     4    16 1
    10     4    17 1
    11     4    18 1
    12    11     5 1
    13     6     5 1
    14     5    19 1
    15     5    20 1
    16     6     7 1
    17     6    21 1
    18     6    22 1
    19     7    23 1
    20     7    24 1
    21     7    25 1
    22     9     8 1
    23     8    11 1
    24     8    26 1
    25     8    27 1
    26    10     9 1
    27     9    28 1
    28     9    29 1
    29    10    30 1
    30    10    31 1
    31    10    32 1
@<TRIPOS>SUBSTRUCTURE
     1 XPT         1 TEMP              0 ****  ****    0 ROOT
