@<TRIPOS>MOLECULE
XPT
   32    31     1     0     0
SMALL
bcc


@<TRIPOS>ATOM
      1 CL1         1.0320    1.6280   -0.4070 cl        1 XPT     -0.238900
      2 C3          1.9820   -0.3310    1.8670 c3        1 XPT     -0.035933
      3 C4          2.7790   -1.4930    2.3990 c3        1 XPT     -0.056067
      4 C5          2.4920   -1.7410    3.8590 c3        1 XPT     -0.091767
      5 C6          2.1460   -1.3460   -0.7470 c3        1 XPT     -0.035933
      6 C7          0.7510   -1.9190   -0.7360 c3        1 XPT     -0.056067
      7 C8          0.6350   -3.1120   -1.6510 c3        1 XPT     -0.091767
      8 C9          3.9820    0.4940    0.1500 c3        1 XPT     -0.035933
      9 C10         4.3870    1.1250   -1.1590 c3        1 XPT     -0.056067
     10 C11         5.8430    1.5150   -1.1590 c3        1 XPT     -0.091767
     11 SN1         2.2650    0.1290    0.1970 s6        1 XPT     -0.303500
     12 H3          0.8890   -0.5580    1.9710 h1        1 XPT      0.083533
     13 H3A         2.1800    0.5730    2.4990 h1        1 XPT      0.083533
     14 H4          3.8770   -1.2930    2.2680 hc        1 XPT      0.045700
     15 H4A         2.5340   -2.4190    1.8120 hc        1 XPT      0.045700
     16 H5          1.4080   -1.9620    4.0140 hc        1 XPT      0.035478
     17 H5A         2.7570   -0.8460    4.4710 hc        1 XPT      0.035478
     18 H5B         3.0870   -2.6110    4.2270 hc        1 XPT      0.035478
     19 H6          2.4370   -1.0990   -1.8000 h1        1 XPT      0.083533
     20 H6A         2.8720   -2.1140   -0.3840 h1        1 XPT      0.083533
     21 H7          0.0170   -1.1310   -1.0560 hc        1 XPT      0.045700
     22 H7A         0.4810   -2.2260    0.3110 hc        1 XPT      0.045700
     23 H8         -0.4030   -3.5240   -1.6160 hc        1 XPT      0.035478
     24 H8A         1.3460   -3.9160   -1.3440 hc        1 XPT      0.035478
     25 H8B         0.8660   -2.8240   -2.7050 hc        1 XPT      0.035478
     26 H9          4.5910   -0.4280    0.3240 h1        1 XPT      0.083533
     27 H9A         4.2160    1.1980    0.9880 h1        1 XPT      0.083533
     28 H10         4.1970    0.4040   -1.9990 hc        1 XPT      0.045700
     29 H10A        3.7560    2.0350   -1.3500 hc        1 XPT      0.045700
     30 H11         6.4920    0.6220   -0.9890 hc        1 XPT      0.035478
     31 H11A        6.1200    1.9730   -2.1390 hc        1 XPT      0.035478
     32 H11B        6.0510    2.2580   -0.3510 hc        1 XPT      0.035478
@<TRIPOS>BOND
     1    1   11 1   
     2    2    3 1   
     3    2   11 1   
     4    2   12 1   
     5    2   13 1   
     6    3    4 1   
     7    3   14 1   
     8    3   15 1   
     9    4   16 1   
    10    4   17 1   
    11    4   18 1   
    12    5    6 1   
    13    5   11 1   
    14    5   19 1   
    15    5   20 1   
    16    6    7 1   
    17    6   21 1   
    18    6   22 1   
    19    7   23 1   
    20    7   24 1   
    21    7   25 1   
    22    8    9 1   
    23    8   11 1   
    24    8   26 1   
    25    8   27 1   
    26    9   10 1   
    27    9   28 1   
    28    9   29 1   
    29   10   30 1   
    30   10   31 1   
    31   10   32 1   
@<TRIPOS>SUBSTRUCTURE
     1 XPT         1 TEMP              0 ****  ****    0 ROOT
