@<TRIPOS>MOLECULE
XPY
   52    48     1     0     0
SMALL
bcc


@<TRIPOS>ATOM
      1 C1          1.4710   -1.9200    0.3620 c1        1 XPY      0.231500
      2 C2          0.9470   -0.9070    1.0070 ce        1 XPY     -0.255700
      3 C3          1.5360   -0.4380    2.3010 ce        1 XPY      0.734500
      4 N6         -2.8000    2.5190    9.5850 nc        1 XPY     -0.429800
      5 C7          8.7130    1.0370    2.7450 c1        1 XPY     -0.166000
      6 C8          5.5310   -1.4070   -1.9810 c2        1 XPY     -0.104000
      7 C9          5.7740   -1.4870   -0.6600 ce        1 XPY      0.102300
      8 C10         1.7700   -5.2140   -0.5350 c1        1 XPY      0.585800
      9 C11        -1.6140   -0.0880    4.2510 ce        1 XPY     -0.294200
     10 C12        -1.2820    0.6180    5.5080 c         1 XPY      0.683300
     11 C13        -2.2210    1.5490    7.5680 cd        1 XPY     -0.077700
     12 C14        -3.3020    1.8740    8.4890 cd        1 XPY      0.178600
     13 C15        -4.7800    1.5870    8.3480 c3        1 XPY      0.637600
     14 F2         -5.1160    0.9270    7.1880 f         1 XPY     -0.230300
     15 F          -5.2990    0.7990    9.3430 f         1 XPY     -0.230300
     16 F1         -5.5720    2.7060    8.3360 f         1 XPY     -0.230300
     17 N7         -1.4860    2.6220    9.4080 na        1 XPY      0.119400
     18 C17        -1.0590    2.0500    8.2010 cc        1 XPY     -0.159300
     19 N5         -2.3420    0.8970    6.3520 n         1 XPY     -0.420100
     20 O          -0.1090    0.9490    5.8050 o         1 XPY     -0.653100
     21 C          -0.7180   -0.4040    3.2870 c2        1 XPY      0.128000
     22 N4          1.8900   -4.0350   -0.3790 n1        1 XPY     -0.747100
     23 N1          2.1250   -2.7450   -0.3340 ne        1 XPY     -0.084100
     24 N           0.6370   -0.1190    3.3220 nh        1 XPY     -0.747000
     25 N2          2.8370   -0.3390    2.3560 n2        1 XPY     -0.955100
     26 C4          6.9810   -1.9570   -0.1060 cg        1 XPY     -0.281300
     27 C6          7.8670    0.7430    3.5390 c1        1 XPY     -0.166000
     28 C5          8.0250   -2.3670    0.3150 c1        1 XPY      0.029500
     29 H1         -1.0710   -0.9460    2.3840 h4        1 XPY      0.150000
     30 H2          0.1100   -0.3210    0.5860 ha        1 XPY      0.201000
     31 H3          5.1140    1.3940    2.0800 ha        1 XPY      0.002250
     32 H4          5.5750    1.1060    2.4860 ha        1 XPY      0.002250
     33 H5          6.3040   -1.7160   -2.7050 ha        1 XPY      0.171000
     34 H6          9.4700    1.3090    2.0530 ha        1 XPY      0.165500
     35 H7          4.5870   -1.0480   -2.4180 ha        1 XPY      0.171000
     36 H8         -2.6650   -0.3830    4.0900 ha        1 XPY      0.163000
     37 H12        -0.0190    2.0310    7.8740 h4        1 XPY      0.210000
     38 H13        -3.2640    0.6200    6.0890 hn        1 XPY      0.345500
     39 H14         3.2330    0.0020    3.2070 hn        1 XPY      0.417400
     40 H15         0.9910    0.3190    4.1570 hn        1 XPY      0.487800
     41 H19         4.7370    0.3220    5.1790 ha        1 XPY      0.002250
     42 H20         8.9540   -2.7320    0.6930 ha        1 XPY      0.200500
     43 H21         4.9180    0.4620    4.5410 ha        1 XPY      0.002250
     44 H22         7.1370    0.4940    4.2690 ha        1 XPY      0.165500
     45 C16        -0.5920    3.2260   10.3730 c3        1 XPY      0.034600
     46 N3          4.7650   -1.0860    0.3350 n4        1 XPY     -0.710400
     47 H16         4.5100   -1.8950    0.9140 hn        1 XPY      0.469467
     48 H9         -1.0030    4.2130   10.7160 h1        1 XPY      0.070700
     49 H10         0.4050    3.3810    9.8840 h1        1 XPY      0.070700
     50 H11        -0.4780    2.5470   11.2610 h1        1 XPY      0.070700
     51 H17         3.9190   -0.7270   -0.1210 hn        1 XPY      0.469467
     52 H33         5.1480   -0.3520    0.9510 hn        1 XPY      0.469467
@<TRIPOS>BOND
     1    1    2 2   
     2    1   23 2   
     3    2    3 1   
     4    2   30 1   
     5    3   24 1   
     6    3   25 2   
     7    4   12 2   
     8    4   17 1   
     9    5   27 3   
    10    5   34 1   
    11    6    7 2   
    12    6   33 1   
    13    6   35 1   
    14    7   26 1   
    15    7   46 1   
    16    8   22 3   
    17    9   10 1   
    18    9   21 2   
    19    9   36 1   
    20   10   19 1   
    21   10   20 2   
    22   11   12 1   
    23   11   18 2   
    24   11   19 1   
    25   12   13 1   
    26   13   14 1   
    27   13   15 1   
    28   13   16 1   
    29   17   18 1   
    30   17   45 1   
    31   18   37 1   
    32   19   38 1   
    33   21   24 1   
    34   21   29 1   
    35   22   23 1   
    36   24   40 1   
    37   25   39 1   
    38   26   28 3   
    39   27   44 1   
    40   28   42 1   
    41   31   32 1   
    42   41   43 1   
    43   45   48 1   
    44   45   49 1   
    45   45   50 1   
    46   46   47 1   
    47   46   51 1   
    48   46   52 1   
@<TRIPOS>SUBSTRUCTURE
     1 XPY         1 TEMP              0 ****  ****    0 ROOT
