@<TRIPOS>MOLECULE
XQ0
   19    20     1     0     0
SMALL
bcc


@<TRIPOS>ATOM
      1 O3         -0.0090    0.0360    0.1520 oh        1 XQ0     -0.495100
      2 C3          1.3630    0.0420    0.0570 ca        1 XQ0      0.160100
      3 C2          2.0560   -0.0850    1.2870 ca        1 XQ0     -0.183000
      4 C4          2.0180    0.1600   -1.1710 ca        1 XQ0     -0.239000
      5 C5          3.4170    0.1440   -1.1330 ca        1 XQ0     -0.017200
      6 C6          4.1380    0.0150    0.1110 ca        1 XQ0     -0.245900
      7 C1          3.4400   -0.0960    1.3120 ca        1 XQ0     -0.030000
      8 N2          4.3920    0.3000   -2.1350 na        1 XQ0     -0.015100
      9 N1          5.6330    0.1770   -1.6320 nc        1 XQ0     -0.525100
     10 C7          5.5470    0.0460   -0.2880 cd        1 XQ0      0.367900
     11 C8          6.6890   -0.0330    0.6410 c3        1 XQ0     -0.106400
     12 H3         -0.3750    0.1470   -0.7380 ho        1 XQ0      0.421000
     13 H2          1.4690   -0.1730    2.2120 ha        1 XQ0      0.153000
     14 H4          1.4650    0.2630   -2.1120 ha        1 XQ0      0.142000
     15 H1          3.9840   -0.1890    2.2640 ha        1 XQ0      0.141000
     16 HA          4.2480    0.1150   -3.1010 hn        1 XQ0      0.313700
     17 H81C        6.3630   -0.5220    1.5930 hc        1 XQ0      0.053367
     18 H82C        7.5340   -0.6210    0.2040 hc        1 XQ0      0.053367
     19 H83C        7.0610    0.9960    0.8770 hc        1 XQ0      0.053367
@<TRIPOS>BOND
     1    1    2 1   
     2    1   12 1   
     3    2    3 ar  
     4    2    4 ar  
     5    3    7 ar  
     6    3   13 1   
     7    4    5 ar  
     8    4   14 1   
     9    5    6 ar  
    10    5    8 1   
    11    6    7 ar  
    12    6   10 1   
    13    7   15 1   
    14    8    9 1   
    15    8   16 1   
    16    9   10 2   
    17   10   11 1   
    18   11   17 1   
    19   11   18 1   
    20   11   19 1   
@<TRIPOS>SUBSTRUCTURE
     1 XQ0         1 TEMP              0 ****  ****    0 ROOT
