@<TRIPOS>MOLECULE
molecule
   19    20     1     0     0
SMALL
bcc


@<TRIPOS>ATOM
      1 O3           0.0000     0.0000     0.0000 oh         1 XQ0      -0.522100
      2 C3           1.3590     0.0000     0.0000 ca         1 XQ0       0.150100
      3 C2           2.0500     0.0000     1.2120 ca         1 XQ0      -0.193000
      4 C4           2.0440    -0.0060    -1.1980 ca         1 XQ0      -0.194000
      5 C5           3.4370    -0.0060    -1.1960 ca         1 XQ0      -0.004200
      6 C6           4.1280    -0.0010     0.0300 ca         1 XQ0      -0.258900
      7 C1           3.4120    -0.0010     1.2330 ca         1 XQ0      -0.041000
      8 N2           4.3860    -0.0110    -2.1850 na         1 XQ0      -0.053100
      9 N1           5.6560    -0.0100    -1.5990 nc         1 XQ0      -0.503100
     10 C7           5.5490    -0.0040    -0.3010 cd         1 XQ0       0.376900
     11 C8           6.6910     0.0010     0.6830 c3         1 XQ0      -0.092400
     12 H3          -0.3140     0.8870    -0.0590 ho         1 XQ0       0.423000
     13 H2           1.4980     0.0000     2.1450 ha         1 XQ0       0.143000
     14 H4           1.5040    -0.1170    -2.1310 ha         1 XQ0       0.142000
     15 H1           3.9410    -0.0010     2.1790 ha         1 XQ0       0.134000
     16 HA           4.2000    -0.0150    -3.1690 hn         1 XQ0       0.332700
     17 H81C         7.6310     0.0010     0.1450 hc         1 XQ0       0.053700
     18 H82C         6.6290     0.8870     1.3030 hc         1 XQ0       0.053700
     19 H83C         6.6320    -0.8820     1.3080 hc         1 XQ0       0.053700
@<TRIPOS>BOND
     1     1     2 1
     2     2     3 ar
     3     2     4 ar
     4     3     7 ar
     5     4     5 ar
     6     5     6 ar
     7     5     8 1
     8     6     7 ar
     9     6    10 1
    10     8     9 1
    11     9    10 2
    12    10    11 1
    13     1    12 1
    14     3    13 1
    15     4    14 1
    16     7    15 1
    17     8    16 1
    18    11    17 1
    19    11    18 1
    20    11    19 1
@<TRIPOS>SUBSTRUCTURE
     1 XQ0         1 TEMP              0 ****  ****    0 ROOT
