@<TRIPOS>MOLECULE
molecule
   53    56     1     0     0
SMALL
bcc


@<TRIPOS>ATOM
      1 C1           0.0000     0.0000     0.0000 c3         1 XQ9      -0.250300
      2 S2           1.8140     0.0000     0.0000 s6         1 XQ9       1.327900
      3 O3           2.3130     0.0000     1.3300 o          1 XQ9      -0.627300
      4 O4           2.3130    -0.9100    -0.9700 o          1 XQ9      -0.627300
      5 N5           2.2270     1.4920    -0.5900 n3         1 XQ9      -0.820500
      6 C6           2.4130     2.6310     0.3180 c3         1 XQ9       0.239800
      7 C7           1.5300     3.7900    -0.1560 c3         1 XQ9      -0.115900
      8 C8           1.8430     4.0970    -1.6220 c3         1 XQ9       0.139700
      9 C9           1.5310     2.8690    -2.4800 c3         1 XQ9      -0.115900
     10 C10          2.4190     1.6990    -2.0310 c3         1 XQ9       0.239800
     11 N11          1.0240     5.2260    -2.0680 ns         1 XQ9      -0.604900
     12 C12          1.4400     5.9960    -3.0940 c          1 XQ9       0.785100
     13 O13          2.4940     5.7530    -3.6480 o          1 XQ9      -0.665100
     14 N14          0.6860     7.0350    -3.5060 ns         1 XQ9      -0.596900
     15 C15          1.1370     7.8710    -4.6200 c3         1 XQ9       0.153400
     16 C16          0.1070     8.9710    -4.8830 c3         1 XQ9      -0.083733
     17 C17          0.5780     9.8450    -6.0460 c3         1 XQ9      -0.061367
     18 C18          1.9240    10.4820    -5.6940 c3         1 XQ9      -0.071067
     19 C19          2.9550     9.3820    -5.4310 c3         1 XQ9      -0.061367
     20 C20          2.4830     8.5090    -4.2670 c3         1 XQ9      -0.083733
     21 C21          3.1120     8.5200    -6.6850 c3         1 XQ9      -0.071067
     22 C22          1.7660     7.8830    -7.0380 c3         1 XQ9      -0.061367
     23 C23          0.7350     8.9830    -7.3010 c3         1 XQ9      -0.071067
     24 C24          1.2940     7.0100    -5.8740 c3         1 XQ9      -0.083733
     25 H11C        -0.3610    -0.9500     0.3750 h1         1 XQ9       0.095033
     26 H12C        -0.3610     0.8000     0.6350 h1         1 XQ9       0.095033
     27 H13C        -0.3610     0.1500    -1.0100 h1         1 XQ9       0.095033
     28 H61C         2.1260     2.3450     1.3230 h1         1 XQ9       0.064700
     29 H62C         3.4520     2.9390     0.3050 h1         1 XQ9       0.064700
     30 H101         2.1360     0.8020    -2.5680 h1         1 XQ9       0.064700
     31 H102         3.4580     1.9360    -2.2290 h1         1 XQ9       0.064700
     32 H71C         0.4880     3.5110    -0.0600 hc         1 XQ9       0.053200
     33 H72C         1.7320     4.6670     0.4470 hc         1 XQ9       0.053200
     34 H8           2.8930     4.3450    -1.7200 h1         1 XQ9       0.085700
     35 H91C         0.4890     2.5990    -2.3570 hc         1 XQ9       0.053200
     36 H92C         1.7310     3.0960    -3.5200 hc         1 XQ9       0.053200
     37 H11          0.1670     5.4400    -1.5980 hn         1 XQ9       0.305500
     38 H14         -0.1800     7.2380    -3.0460 hn         1 XQ9       0.304500
     39 H161        -0.8460     8.5210    -5.1330 hc         1 XQ9       0.054867
     40 H162        -0.0040     9.5820    -3.9950 hc         1 XQ9       0.054867
     41 H201         2.3720     9.1200    -3.3790 hc         1 XQ9       0.054867
     42 H202         3.2140     7.7310    -4.0800 hc         1 XQ9       0.054867
     43 H241         0.3410     6.5590    -6.1240 hc         1 XQ9       0.054867
     44 H242         2.0240     6.2310    -5.6880 hc         1 XQ9       0.054867
     45 H17         -0.1530    10.6230    -6.2320 hc         1 XQ9       0.050033
     46 H181         2.2580    11.1000    -6.5180 hc         1 XQ9       0.042367
     47 H182         1.8130    11.0930    -4.8060 hc         1 XQ9       0.042367
     48 H231         1.0690     9.6020    -8.1250 hc         1 XQ9       0.042367
     49 H232        -0.2180     8.5320    -7.5510 hc         1 XQ9       0.042367
     50 H19          3.9080     9.8330    -5.1810 hc         1 XQ9       0.050033
     51 H211         3.8430     7.7420    -6.5000 hc         1 XQ9       0.042367
     52 H212         3.4460     9.1390    -7.5100 hc         1 XQ9       0.042367
     53 H22          1.8770     7.2720    -7.9260 hc         1 XQ9       0.050033
@<TRIPOS>BOND
     1     1     2 1
     2     2     3 2
     3     2     4 2
     4     2     5 1
     5     5     6 1
     6     5    10 1
     7     6     7 1
     8     7     8 1
     9     8     9 1
    10     8    11 1
    11     9    10 1
    12    11    12 1
    13    12    13 2
    14    12    14 1
    15    14    15 1
    16    15    16 1
    17    15    20 1
    18    15    24 1
    19    16    17 1
    20    17    18 1
    21    17    23 1
    22    18    19 1
    23    19    20 1
    24    19    21 1
    25    21    22 1
    26    22    23 1
    27    22    24 1
    28     1    25 1
    29     1    26 1
    30     1    27 1
    31     6    28 1
    32     6    29 1
    33    10    30 1
    34    10    31 1
    35     7    32 1
    36     7    33 1
    37     8    34 1
    38     9    35 1
    39     9    36 1
    40    11    37 1
    41    14    38 1
    42    16    39 1
    43    16    40 1
    44    20    41 1
    45    20    42 1
    46    24    43 1
    47    24    44 1
    48    17    45 1
    49    18    46 1
    50    18    47 1
    51    23    48 1
    52    23    49 1
    53    19    50 1
    54    21    51 1
    55    21    52 1
    56    22    53 1
@<TRIPOS>SUBSTRUCTURE
     1 XQ9         1 TEMP              0 ****  ****    0 ROOT
