@<TRIPOS>MOLECULE
XQB
   21    20     1     0     0
SMALL
bcc


@<TRIPOS>ATOM
      1 OAE          0.0000     0.0000     0.0000 o          1 XQB      -0.898300
      2 CAJ          1.2140     0.0000     0.0000 c          1 XQB       0.869300
      3 OAC          1.8870     0.0000     1.1660 o          1 XQB      -0.898300
      4 CAL          1.9550    -0.0050    -1.2840 ce         1 XQB       0.408300
      5 NAA          3.2350    -0.0050    -1.2840 n2         1 XQB      -0.774100
      6 CAN          1.2020    -0.0110    -2.5890 c3         1 XQB      -0.186000
      7 CAK          0.4300     1.2750    -2.7300 c          1 XQB       1.005600
      8 OAF          0.4860     2.1120    -1.8600 o          1 XQB      -0.901300
      9 OAD         -0.3190     1.4930    -3.8220 o          1 XQB      -0.901300
     10 CAI          2.1910    -0.1420    -3.7480 c3         1 XQB       0.022600
     11 CAM          1.4210    -0.2730    -5.0640 c3         1 XQB       0.002100
     12 OAG          0.6790    -1.4940    -5.0620 oh         1 XQB      -0.566800
     13 CAH          2.3930    -0.2790    -6.2160 c          1 XQB       0.637900
     14 OAB          2.4440    -1.2300    -6.9580 o          1 XQB      -0.629100
     15 H2           3.7360    -0.0020    -0.4170 hn         1 XQB       0.316400
     16 H3           0.5140    -0.8480    -2.6050 hc         1 XQB       0.050700
     17 H5           2.8230     0.7380    -3.7860 hc         1 XQB       0.008700
     18 H6           2.8060    -1.0220    -3.6010 hc         1 XQB       0.008700
     19 H7           0.7400     0.5630    -5.1690 h1         1 XQB       0.126700
     20 H8           0.0370    -1.4730    -5.7520 ho         1 XQB       0.368000
     21 H9           3.0200     0.5850    -6.3990 h4         1 XQB      -0.068800
@<TRIPOS>BOND
     1     1     2 1   
     2     2     3 1   
     3     2     4 1   
     4     4     5 2   
     5     4     6 1   
     6     5    15 1   
     7     6     7 1   
     8     6    10 1   
     9     6    16 1   
    10     7     8 1   
    11     7     9 1   
    12    10    11 1   
    13    10    17 1   
    14    10    18 1   
    15    11    12 1   
    16    11    13 1   
    17    11    19 1   
    18    12    20 1   
    19    13    14 2   
    20    13    21 1   
@<TRIPOS>SUBSTRUCTURE
     1 XQB         1 TEMP              0 ****  ****    0 ROOT
