@<TRIPOS>MOLECULE
XQC
   46    47     1     0     0
SMALL
bcc


@<TRIPOS>ATOM
      1 CAA          0.0000     0.0000     0.0000 c3         1 XQC      -0.036600
      2 CAB          1.5310     0.0000     0.0000 c3         1 XQC       0.108200
      3 CAC          2.0390     0.0000     1.4420 c3         1 XQC      -0.036600
      4 CAD          2.0410    -1.2500    -0.7210 c3         1 XQC       0.038900
      5 CAE          1.5380    -2.4800    -0.0100 ca         1 XQC      -0.100300
      6 CAF          0.3300    -3.0440    -0.3770 ca         1 XQC      -0.082000
      7 CAG         -0.1340    -4.1720     0.2730 ca         1 XQC      -0.137000
      8 CAH          0.6160    -4.7390     1.2940 ca         1 XQC       0.120100
      9 CAJ          1.8270    -4.1720     1.6600 ca         1 XQC      -0.137000
     10 CAK          2.2890    -3.0470     1.0030 ca         1 XQC      -0.082000
     11 CAM          1.5490     2.4210    -0.0270 c3         1 XQC       0.112800
     12 CAN          2.0790     3.6460    -0.7750 c3         1 XQC       0.254400
     13 CAP          1.5950     4.8990    -0.0920 ca         1 XQC      -0.128300
     14 CAQ          2.2980     5.4140     0.9800 ca         1 XQC      -0.067000
     15 CAR          1.8580     6.5650     1.6110 ca         1 XQC      -0.138000
     16 CAS          0.7110     7.2030     1.1670 ca         1 XQC       0.104100
     17 CAU          0.0040     6.6830     0.0860 ca         1 XQC       0.096100
     18 CAW          0.4520     5.5340    -0.5430 ca         1 XQC      -0.129000
     19 NAL          2.0200     1.1990    -0.6930 n7         1 XQC      -0.565200
     20 OAI          0.1620    -5.8480     1.9350 oh         1 XQC      -0.500100
     21 OAO          3.5070     3.6230    -0.7740 oh         1 XQC      -0.570800
     22 OAT          0.2780     8.3330     1.7860 oh         1 XQC      -0.490100
     23 OAV         -1.1230     7.3050    -0.3530 oh         1 XQC      -0.488100
     24 H1          -0.3610    -0.9170     0.4490 hc         1 XQC       0.016700
     25 H2          -0.3610     0.8480     0.5700 hc         1 XQC       0.016700
     26 H3          -0.3610     0.0700    -1.0190 hc         1 XQC       0.016700
     27 H4           1.7430    -0.9210     1.9300 hc         1 XQC       0.016700
     28 H5           1.6160     0.8430     1.9750 hc         1 XQC       0.016700
     29 H6           3.1200     0.0780     1.4440 hc         1 XQC       0.016700
     30 H7           3.1240    -1.2510    -0.7210 hc         1 XQC       0.026200
     31 H8           1.6800    -1.2510    -1.7420 hc         1 XQC       0.026200
     32 H9          -0.2540    -2.6010    -1.1740 ha         1 XQC       0.110500
     33 H10         -1.0800    -4.6130    -0.0150 ha         1 XQC       0.113500
     34 H11          2.4140    -4.6150     2.4550 ha         1 XQC       0.113500
     35 H12          3.2350    -2.6040     1.2890 ha         1 XQC       0.110500
     36 H13          0.4660     2.4380    -0.0270 h1         1 XQC       0.027200
     37 H14          1.9100     2.4380     0.9950 h1         1 XQC       0.027200
     38 H15          1.7180     3.6290    -1.7970 h1         1 XQC      -0.001300
     39 H16          3.1950     4.9160     1.3280 ha         1 XQC       0.124000
     40 H17          2.4110     6.9670     2.4520 ha         1 XQC       0.115000
     41 H18         -0.0960     5.1280    -1.3850 ha         1 XQC       0.113000
     42 H19          1.6990     1.1910    -1.6410 hn         1 XQC       0.248800
     43 H21         -0.3610    -5.5910     2.6760 ho         1 XQC       0.401000
     44 H22          3.8270     3.8850    -1.6220 ho         1 XQC       0.389000
     45 H23          0.8350     9.0550     1.5480 ho         1 XQC       0.405000
     46 H24         -1.8770     6.7900    -0.1190 ho         1 XQC       0.403000
@<TRIPOS>BOND
     1     1     2 1   
     2     1    24 1   
     3     1    25 1   
     4     1    26 1   
     5     2     3 1   
     6     2     4 1   
     7     2    19 1   
     8     3    27 1   
     9     3    28 1   
    10     3    29 1   
    11     4     5 1   
    12     4    30 1   
    13     4    31 1   
    14     5     6 ar  
    15     5    10 ar  
    16     6     7 ar  
    17     6    32 1   
    18     7     8 ar  
    19     7    33 1   
    20     8     9 ar  
    21     8    20 1   
    22     9    10 ar  
    23     9    34 1   
    24    10    35 1   
    25    11    12 1   
    26    11    19 1   
    27    11    36 1   
    28    11    37 1   
    29    12    13 1   
    30    12    21 1   
    31    12    38 1   
    32    13    14 ar  
    33    13    18 ar  
    34    14    15 ar  
    35    14    39 1   
    36    15    16 ar  
    37    15    40 1   
    38    16    17 ar  
    39    16    22 1   
    40    17    18 ar  
    41    17    23 1   
    42    18    41 1   
    43    19    42 1   
    44    20    43 1   
    45    21    44 1   
    46    22    45 1   
    47    23    46 1   
@<TRIPOS>SUBSTRUCTURE
     1 XQC         1 TEMP              0 ****  ****    0 ROOT
