@<TRIPOS>MOLECULE
molecule
   17    18     1     0     0
SMALL
bcc


@<TRIPOS>ATOM
      1 C6           0.0000     0.0000     0.0000 ca         1 XQG       0.626600
      2 C5           1.4060     0.0000     0.0000 ca         1 XQG      -0.143200
      3 C4           2.0680     0.0000     1.2380 ca         1 XQG       0.449800
      4 C2           0.0330     0.0000     2.3080 ca         1 XQG       0.710900
      5 C8           3.5360    -0.0000    -0.4070 cc         1 XQG       0.427700
      6 C11         -2.5930     0.0040    -0.8740 c3         1 XQG      -0.028000
      7 N1          -0.6340     0.0000     1.1690 nb         1 XQG      -0.776000
      8 N3           1.3480    -0.0010     2.3560 nb         1 XQG      -0.758000
      9 N9           3.4090    -0.0010     0.9510 na         1 XQG      -0.361000
     10 N7           2.3590    -0.0000    -0.9620 nd         1 XQG      -0.572100
     11 S1          -0.9010     0.0070    -1.5150 ss         1 XQG      -0.253400
     12 H9           4.1580    -0.0000     1.6150 hn         1 XQG       0.315700
     13 H2          -0.5220     0.0000     3.2370 h5         1 XQG       0.063100
     14 H8           4.4760     0.0010    -0.9440 h5         1 XQG       0.082800
     15 H111        -3.2930     0.0060    -1.7010 h1         1 XQG       0.071367
     16 H112        -2.7510     0.8870    -0.2660 h1         1 XQG       0.071367
     17 H113        -2.7500    -0.8820    -0.2710 h1         1 XQG       0.071367
@<TRIPOS>BOND
     1     1     2 ar
     2     1     7 ar
     3     1    11 1
     4     2     3 ar
     5     2    10 1
     6     3     8 ar
     7     3     9 1
     8     4     7 ar
     9     4     8 ar
    10     5     9 1
    11     5    10 2
    12     6    11 1
    13     9    12 1
    14     4    13 1
    15     5    14 1
    16     6    15 1
    17     6    16 1
    18     6    17 1
@<TRIPOS>SUBSTRUCTURE
     1 XQG         1 TEMP              0 ****  ****    0 ROOT
