@<TRIPOS>MOLECULE
XQG
   17    18     1     0     0
SMALL
bcc


@<TRIPOS>ATOM
      1 C6         -0.0520    0.0020    0.0730 ca        1 XQG      0.564600
      2 C5          1.3670    0.0010    0.0070 ca        1 XQG     -0.163200
      3 C4          2.0870   -0.0010    1.2860 ca        1 XQG      0.431800
      4 C2          0.1180   -0.0010    2.4010 ca        1 XQG      0.662900
      5 C8          3.4960    0.0010   -0.4620 cc        1 XQG      0.411700
      6 C11        -2.5970    0.0040   -0.9530 c3        1 XQG     -0.082000
      7 N1         -0.6620    0.0010    1.2800 nb        1 XQG     -0.745000
      8 N3          1.4670   -0.0020    2.5030 nb        1 XQG     -0.701000
      9 N9          3.4440   -0.0010    0.9480 na        1 XQG     -0.378000
     10 N7          2.2880    0.0020   -1.0500 nd        1 XQG     -0.527100
     11 S1         -0.9030    0.0040   -1.3840 ss        1 XQG     -0.157400
     12 H9          4.2020   -0.0020    1.5770 hn        1 XQG      0.319700
     13 H2         -0.4360   -0.0020    3.3640 h5        1 XQG      0.055100
     14 H8          4.4550    0.0020   -0.9950 h5        1 XQG      0.075800
     15 H111       -3.1460    0.0060   -1.9240 h1        1 XQG      0.077367
     16 H112       -2.8900   -0.8980   -0.3690 h1        1 XQG      0.077367
     17 H113       -2.8890    0.9040   -0.3660 h1        1 XQG      0.077367
@<TRIPOS>BOND
     1    1    2 ar  
     2    1    7 ar  
     3    1   11 1   
     4    2    3 ar  
     5    2   10 1   
     6    3    8 ar  
     7    3    9 1   
     8    4    7 ar  
     9    4    8 ar  
    10    4   13 1   
    11    5    9 1   
    12    5   10 2   
    13    5   14 1   
    14    6   11 1   
    15    6   15 1   
    16    6   16 1   
    17    6   17 1   
    18    9   12 1   
@<TRIPOS>SUBSTRUCTURE
     1 XQG         1 TEMP              0 ****  ****    0 ROOT
