@<TRIPOS>MOLECULE
XQI
   23    23     1     0     0
SMALL
bcc


@<TRIPOS>ATOM
      1 CG         -0.5580   -0.0980    0.1720 ca        1 XQI     -0.020300
      2 CD1         0.7710   -0.1620   -0.2560 ca        1 XQI     -0.181500
      3 CD2        -0.8650    0.1500    1.5120 ca        1 XQI     -0.181500
      4 CE1         1.8000    0.0260    0.6770 ca        1 XQI      0.163600
      5 CE2         0.1820    0.3370    2.4280 ca        1 XQI      0.163600
      6 CZ          1.5230    0.2790    2.0280 ca        1 XQI     -0.296000
      7 OH1         3.0850   -0.0500    0.1940 oh        1 XQI     -0.492600
      8 OH2        -0.1860    0.5820    3.7300 oh        1 XQI     -0.492600
      9 C          -1.6060   -1.5920   -1.5070 c         1 XQI      0.634100
     10 O          -2.2070   -2.6280   -1.2210 o         1 XQI     -0.531000
     11 C9         -1.6600   -0.2600   -0.8180 c3        1 XQI     -0.084100
     12 OXT        -0.7960   -1.5960   -2.6100 os        1 XQI     -0.441900
     13 CH3        -0.6890   -2.8280   -3.3250 c3        1 XQI      0.124700
     14 HD1         1.0120   -0.3650   -1.3110 ha        1 XQI      0.161500
     15 HD2        -1.9050    0.1960    1.8630 ha        1 XQI      0.161500
     16 H91C       -2.6620   -0.1790   -0.3160 hc        1 XQI      0.088700
     17 H92C       -1.5830    0.5520   -1.5930 hc        1 XQI      0.088700
     18 HZ          2.3350    0.4250    2.7520 ha        1 XQI      0.137000
     19 HH1         3.6940    0.0890    0.9340 ho        1 XQI      0.420500
     20 HH2         0.6210    0.6750    4.2580 ho        1 XQI      0.420500
     21 HH31        0.0160   -2.5900   -4.1590 h1        1 XQI      0.051700
     22 HH32       -1.6920   -3.1320   -3.7090 h1        1 XQI      0.051700
     23 HH33       -0.2790   -3.6220   -2.6550 h1        1 XQI      0.051700
@<TRIPOS>BOND
     1    1    2 ar  
     2    1    3 ar  
     3    1   11 1   
     4    2    4 ar  
     5    2   14 1   
     6    3    5 ar  
     7    3   15 1   
     8    4    6 ar  
     9    4    7 1   
    10    5    6 ar  
    11    5    8 1   
    12    6   18 1   
    13    7   19 1   
    14    8   20 1   
    15    9   10 2   
    16    9   11 1   
    17    9   12 1   
    18   11   16 1   
    19   11   17 1   
    20   12   13 1   
    21   13   21 1   
    22   13   22 1   
    23   13   23 1   
@<TRIPOS>SUBSTRUCTURE
     1 XQI         1 TEMP              0 ****  ****    0 ROOT
