@<TRIPOS>MOLECULE
molecule
   23    23     1     0     0
SMALL
bcc


@<TRIPOS>ATOM
      1 CG           0.0000     0.0000     0.0000 ca         1 XQI      -0.052300
      2 CD1          1.3810     0.0000     0.0000 ca         1 XQI      -0.143000
      3 CD2         -0.6940     0.0000     1.1950 ca         1 XQI      -0.143000
      4 CE1          2.0750     0.0000     1.2020 ca         1 XQI       0.120600
      5 CE2         -0.0040     0.0010     2.3990 ca         1 XQI       0.120600
      6 CZ           1.3820     0.0010     2.4020 ca         1 XQI      -0.173000
      7 OH1          3.4350     0.0010     1.2020 oh         1 XQI      -0.520100
      8 OH2         -0.6870     0.0020     3.5740 oh         1 XQI      -0.520100
      9 C           -1.0030    -1.4130    -1.7470 c          1 XQI       0.628100
     10 O           -0.6110    -2.3350    -1.0710 o          1 XQI      -0.541000
     11 C9          -0.7520     0.0060    -1.3070 c3         1 XQI      -0.077100
     12 OXT         -1.6610    -1.6530    -2.8930 os         1 XQI      -0.431900
     13 CH3         -1.8660    -3.0450    -3.2560 c3         1 XQI       0.139700
     14 HD1          1.9230    -0.0010    -0.9380 ha         1 XQI       0.142000
     15 HD2         -1.7770     0.0000     1.1910 ha         1 XQI       0.142000
     16 H91C        -1.6990     0.5160    -1.1760 hc         1 XQI       0.081700
     17 H92C        -0.1650     0.5190    -2.0590 hc         1 XQI       0.081700
     18 HZ           1.9230     0.0020     3.3410 ha         1 XQI       0.151000
     19 HH1          3.7490    -0.8880     1.2030 ho         1 XQI       0.422000
     20 HH2         -0.8450    -0.8870     3.8460 ho         1 XQI       0.422000
     21 HH31        -0.9060    -3.5360    -3.3630 h1         1 XQI       0.050033
     22 HH32        -2.4400    -3.5390    -2.4810 h1         1 XQI       0.050033
     23 HH33        -2.4060    -3.0980    -4.1940 h1         1 XQI       0.050033
@<TRIPOS>BOND
     1     1     2 ar
     2     1     3 ar
     3     1    11 1
     4     2     4 ar
     5     3     5 ar
     6     4     6 ar
     7     4     7 1
     8     5     6 ar
     9     5     8 1
    10     9    10 2
    11     9    12 1
    12     9    11 1
    13    12    13 1
    14     2    14 1
    15     3    15 1
    16    11    16 1
    17    11    17 1
    18     6    18 1
    19     7    19 1
    20     8    20 1
    21    13    21 1
    22    13    22 1
    23    13    23 1
@<TRIPOS>SUBSTRUCTURE
     1 XQI         1 TEMP              0 ****  ****    0 ROOT
