@<TRIPOS>MOLECULE
XQK
   24    25     1     0     0
SMALL
bcc


@<TRIPOS>ATOM
      1 C1          0.2100    0.4330   -0.1850 cc        1 XQK      0.300200
      2 C4          1.9790    0.2840    1.1800 cd        1 XQK      0.312200
      3 C5          1.6670    0.3820   -0.1650 cc        1 XQK     -0.333600
      4 C6          3.2010    0.2020    1.9230 cd        1 XQK     -0.088800
      5 C9          4.9770    0.3570    3.3400 cc        1 XQK      0.373600
      6 C10         3.6460    0.8850    3.0790 cc        1 XQK     -0.260900
      7 C11         2.9710    1.9030    3.8560 c         1 XQK      0.681700
      8 C13         1.1940    3.4830    3.9470 c3        1 XQK      0.129700
      9 C15         5.8710    0.7560    4.4430 c3        1 XQK     -0.144400
     10 O14         3.2380    2.3010    4.9950 o         1 XQK     -0.545000
     11 O12         1.9150    2.4940    3.2100 os        1 XQK     -0.430900
     12 N8          5.2860   -0.5730    2.3880 nd        1 XQK     -0.505800
     13 N7          4.2460   -0.6570    1.5630 na        1 XQK      0.005400
     14 NAF        -0.2510    0.3630    1.0750 nd        1 XQK     -0.341300
     15 O3          0.7610    0.2720    1.9090 os        1 XQK     -0.081100
     16 H1         -0.4370    0.5170   -1.0600 h4        1 XQK      0.057100
     17 H5          2.3270    0.4320   -1.0230 ha        1 XQK      0.179000
     18 H7          4.2500   -1.3020    0.8060 hn        1 XQK      0.332700
     19 H151        5.2900    1.3210    5.2160 hc        1 XQK      0.068033
     20 H152        6.6880    1.4150    4.0530 hc        1 XQK      0.068033
     21 H153        6.3400   -0.1390    4.9230 hc        1 XQK      0.068033
     22 H131        0.3840    3.7940    3.2430 h1        1 XQK      0.052033
     23 H132        0.7770    3.0360    4.8810 h1        1 XQK      0.052033
     24 H133        1.8700    4.3360    4.1990 h1        1 XQK      0.052033
@<TRIPOS>BOND
     1    1    3 1
     2    1   14 2
     3    1   16 1
     4    2    3 2
     5    2    4 1
     6    2   15 1
     7    3   17 1
     8    4    6 2
     9    4   13 1
    10    5    6 1
    11    5    9 1
    12    5   12 2
    13    6    7 1
    14    7   10 2
    15    7   11 1
    16    8   11 1
    17    8   22 1
    18    8   23 1
    19    8   24 1
    20    9   19 1
    21    9   20 1
    22    9   21 1
    23   12   13 1
    24   13   18 1
    25   14   15 1
@<TRIPOS>SUBSTRUCTURE
     1 XQK         1 TEMP              0 ****  ****    0 ROOT
