@<TRIPOS>MOLECULE
molecule
   45    45     1     0     0
SMALL
bcc


@<TRIPOS>ATOM
      1 O13          0.0000     0.0000     0.0000 o          1 XQO      -0.574100
      2 C12          1.2130     0.0000     0.0000 c          1 XQO       0.653100
      3 N14          1.8870     0.0000     1.1670 ns         1 XQO      -0.597900
      4 C15          1.1540     0.0010     2.4370 c3         1 XQO       0.104300
      5 C11          1.9670    -0.0070    -1.3040 c3         1 XQO      -0.174400
      6 C3           0.9730    -0.0130    -2.4680 c3         1 XQO       0.162500
      7 C4           1.7310     0.0700    -3.8060 c3         1 XQO       0.092100
      8 O21          1.3310     1.2330    -4.5320 oh         1 XQO      -0.572800
      9 C5           1.3310    -1.2100    -4.5760 c3         1 XQO       0.100100
     10 O20          1.1370    -0.9240    -5.9630 oh         1 XQO      -0.577800
     11 C6          -0.0080    -1.6110    -3.9070 c3         1 XQO       0.155500
     12 C18         -0.2710    -3.1090    -4.0830 c3         1 XQO       0.128400
     13 O19          0.8900    -3.8450    -3.6940 oh         1 XQO      -0.610800
     14 N2           0.2150    -1.2830    -2.4760 n3         1 XQO      -0.667600
     15 C1           0.9670    -2.3500    -1.8020 c3         1 XQO       0.120800
     16 C7          -0.0110    -3.3720    -1.2200 c3         1 XQO      -0.068400
     17 C8           0.7740    -4.5140    -0.5690 c3         1 XQO      -0.080400
     18 C9          -0.2040    -5.5380     0.0120 c3         1 XQO      -0.082400
     19 C10          0.5810    -6.6790     0.6620 c3         1 XQO      -0.092100
     20 H14          2.8870     0.0220     1.1680 hn         1 XQO       0.307500
     21 H111         2.5900    -0.8920    -1.3570 hc         1 XQO       0.063200
     22 H112         2.5900     0.8770    -1.3660 hc         1 XQO       0.063200
     23 H151         0.5240     0.8810     2.4900 h1         1 XQO       0.041367
     24 H152         0.5380    -0.8880     2.4990 h1         1 XQO       0.041367
     25 H153         1.8580     0.0110     3.2600 h1         1 XQO       0.041367
     26 H3           0.2890     0.8220    -2.3800 h1         1 XQO       0.107700
     27 H4           2.8000     0.0800    -3.6300 h1         1 XQO       0.028700
     28 H21          2.0660     1.8160    -4.6220 ho         1 XQO       0.396000
     29 H5           2.0730    -1.9860    -4.4380 h1         1 XQO       0.054700
     30 H20          1.8860    -1.2220    -6.4520 ho         1 XQO       0.394000
     31 H6          -0.8240    -1.0230    -4.3090 h1         1 XQO       0.104700
     32 H181        -1.1090    -3.4030    -3.4640 h1         1 XQO       0.046700
     33 H182        -0.4990    -3.3160    -5.1220 h1         1 XQO       0.046700
     34 H19          1.0290    -4.5560    -4.2980 ho         1 XQO       0.388000
     35 H11C         1.6190    -2.8390    -2.5160 h1         1 XQO       0.053700
     36 H12C         1.5610    -1.9230    -1.0030 h1         1 XQO       0.053700
     37 H71C        -0.6340    -3.7680    -2.0130 hc         1 XQO       0.052200
     38 H72C        -0.6350    -2.8930    -0.4760 hc         1 XQO       0.052200
     39 H81C         1.3980    -4.9940    -1.3130 hc         1 XQO       0.036700
     40 H82C         1.3970    -4.1190     0.2240 hc         1 XQO       0.036700
     41 H91C        -0.8270    -5.9340    -0.7810 hc         1 XQO       0.040200
     42 H92C        -0.8280    -5.0590     0.7570 hc         1 XQO       0.040200
     43 H101        -0.1100    -7.3960     1.0890 hc         1 XQO       0.030033
     44 H102         1.2160    -6.2810     1.4440 hc         1 XQO       0.030033
     45 H103         1.1930    -7.1690    -0.0860 hc         1 XQO       0.030033
@<TRIPOS>BOND
     1     1     2 2
     2     2     3 1
     3     2     5 1
     4     3     4 1
     5     5     6 1
     6     6     7 1
     7     6    14 1
     8     7     8 1
     9     7     9 1
    10     9    10 1
    11     9    11 1
    12    11    12 1
    13    11    14 1
    14    12    13 1
    15    14    15 1
    16    15    16 1
    17    16    17 1
    18    17    18 1
    19    18    19 1
    20     3    20 1
    21     5    21 1
    22     5    22 1
    23     4    23 1
    24     4    24 1
    25     4    25 1
    26     6    26 1
    27     7    27 1
    28     8    28 1
    29     9    29 1
    30    10    30 1
    31    11    31 1
    32    12    32 1
    33    12    33 1
    34    13    34 1
    35    15    35 1
    36    15    36 1
    37    16    37 1
    38    16    38 1
    39    17    39 1
    40    17    40 1
    41    18    41 1
    42    18    42 1
    43    19    43 1
    44    19    44 1
    45    19    45 1
@<TRIPOS>SUBSTRUCTURE
     1 XQO         1 TEMP              0 ****  ****    0 ROOT
