@<TRIPOS>MOLECULE
XR1
   67    72     1     0     0
SMALL
bcc


@<TRIPOS>ATOM
      1 C26          0.0000     0.0000     0.0000 c3         1 XR1      -0.006100
      2 C25          1.5310     0.0000     0.0000 c3         1 XR1       0.011000
      3 N21          2.0190     0.0000     1.3810 n          1 XR1       0.008700
      4 C22          2.2410    -1.1700     2.0090 c          1 XR1       0.621700
      5 O27          2.0360    -2.2200     1.4270 o          1 XR1      -0.665500
      6 C33          4.2820    -2.9250     4.2740 ca         1 XR1      -0.019600
      7 C32          4.5100    -4.1200     4.9210 ca         1 XR1      -0.095000
      8 C31          3.4330    -4.8810     5.3800 ca         1 XR1       0.012000
      9 C37          3.6760    -6.1620     6.0750 cc         1 XR1      -0.042400
     10 C36          2.7310    -6.9970     6.5620 cd         1 XR1       0.347200
     11 N35          3.2100    -8.0750     7.1380 nd         1 XR1      -0.557000
     12 S38          5.2500    -6.8790     6.4100 ss         1 XR1      -0.303300
     13 C34          4.4940    -8.2090     7.1720 cc         1 XR1       0.461300
     14 C30          2.1250    -4.4310     5.1820 ca         1 XR1      -0.091000
     15 C29          1.8980    -3.2380     4.5350 ca         1 XR1      -0.062000
     16 C28          2.9750    -2.4730     4.0810 ca         1 XR1      -0.006800
     17 C23          2.7300    -1.1870     3.3910 cc         1 XR1      -0.173400
     18 C24          2.9590    -0.0010     4.0380 cd         1 XR1       0.034800
     19 C19          2.7160     1.2110     3.3520 ca         1 XR1      -0.436400
     20 C20          2.9340     2.4520     3.9700 ca         1 XR1       0.549200
     21 N15          2.6900     3.5510     3.2810 nb         1 XR1      -0.710000
     22 C18          2.2510     1.1920     2.0190 ca         1 XR1       0.460200
     23 N17          2.0390     2.3490     1.4020 nb         1 XR1      -0.745000
     24 C16          2.2480     3.4960     2.0300 ca         1 XR1       0.740900
     25 N14          2.0160     4.6770     1.3540 nu         1 XR1      -0.258300
     26 C8           2.1170     5.9010     2.0270 ca         1 XR1      -0.042400
     27 C13          2.5760     7.0270     1.3560 ca         1 XR1      -0.086000
     28 C12          2.6760     8.2340     2.0200 ca         1 XR1      -0.130000
     29 C11          2.3150     8.3220     3.3590 ca         1 XR1       0.016600
     30 C10          1.8550     7.1960     4.0290 ca         1 XR1      -0.130000
     31 C9           1.7510     5.9910     3.3640 ca         1 XR1      -0.086000
     32 N3           2.4170     9.5450     4.0320 nh         1 XR1      -0.364000
     33 C2           1.9860     9.4130     5.4300 c3         1 XR1       0.136300
     34 C4           3.7830    10.0780     3.9510 c3         1 XR1       0.136300
     35 C5           3.8320    11.4490     4.6290 c3         1 XR1       0.152800
     36 N6           3.4020    11.3180     6.0280 n3         1 XR1      -0.548600
     37 C7           3.5090    12.6010     6.7340 c3         1 XR1       0.189100
     38 C1           2.0360    10.7840     6.1070 c3         1 XR1       0.152800
     39 H1          -0.3610     0.7180    -0.7270 hc         1 XR1       0.011033
     40 H2          -0.3610     0.2700     0.9850 hc         1 XR1       0.011033
     41 H3          -0.3610    -0.9880    -0.2580 hc         1 XR1       0.011033
     42 H4           1.8920     0.8840    -0.5110 h1         1 XR1       0.049200
     43 H5           1.8920    -0.8850    -0.5110 h1         1 XR1       0.049200
     44 H6           5.5230    -4.4830     5.0470 ha         1 XR1       0.127000
     45 H7           1.6700    -6.7930     6.4830 h4         1 XR1       0.007100
     46 H8           5.0170    -9.0480     7.6150 h5         1 XR1       0.025100
     47 H9           1.2900    -5.0230     5.5360 ha         1 XR1       0.112000
     48 H10          0.8830    -2.8890     4.3830 ha         1 XR1       0.113000
     49 H11          3.3210     0.0080     5.0590 ha         1 XR1       0.116000
     50 H12          3.2940     2.5060     4.9900 h4         1 XR1      -0.012900
     51 H13          1.7700     4.6590     0.3840 hn         1 XR1       0.292800
     52 H14          2.8570     6.9590     0.3120 ha         1 XR1       0.118000
     53 H15          3.0340     9.1120     1.4960 ha         1 XR1       0.119500
     54 H16          1.5720     7.2650     5.0720 ha         1 XR1       0.119500
     55 H17          1.3920     5.1130     3.8870 ha         1 XR1       0.118000
     56 H18          0.9720     9.0340     5.4600 h1         1 XR1       0.024700
     57 H19          2.6480     8.7310     5.9490 h1         1 XR1       0.024700
     58 H20          4.0690    10.1800     2.9110 h1         1 XR1       0.024700
     59 H21          4.4640     9.4030     4.4550 h1         1 XR1       0.024700
     60 H22          3.1690    12.1310     4.1110 h1         1 XR1       0.015200
     61 H23          4.8460    11.8300     4.5980 h1         1 XR1       0.015200
     62 H25          4.5320    12.9550     6.6890 h1         1 XR1       0.000700
     63 H26          3.2180    12.4690     7.7690 h1         1 XR1       0.000700
     64 H27          2.8550    13.3270     6.2650 h1         1 XR1       0.000700
     65 H28          1.7490    10.6830     7.1470 h1         1 XR1       0.015200
     66 H29          1.3560    11.4600     5.6030 h1         1 XR1       0.015200
     67 Cl1          5.6210    -1.9780     3.7040 cl         1 XR1      -0.021400
@<TRIPOS>BOND
     1     1     2 1   
     2     1    39 1   
     3     1    40 1   
     4     1    41 1   
     5     2     3 1   
     6     2    42 1   
     7     2    43 1   
     8     3     4 1   
     9     3    22 1   
    10     4     5 2   
    11     4    17 1   
    12     6     7 ar  
    13     6    16 ar  
    14     6    67 1   
    15     7     8 ar  
    16     7    44 1   
    17     8     9 1   
    18     8    14 ar  
    19     9    10 2   
    20     9    12 1   
    21    10    11 1   
    22    10    45 1   
    23    11    13 2   
    24    12    13 1   
    25    13    46 1   
    26    14    15 ar  
    27    14    47 1   
    28    15    16 ar  
    29    15    48 1   
    30    16    17 1   
    31    17    18 2   
    32    18    19 1   
    33    18    49 1   
    34    19    20 ar  
    35    19    22 ar  
    36    20    21 ar  
    37    20    50 1   
    38    21    24 ar  
    39    22    23 ar  
    40    23    24 ar  
    41    24    25 1   
    42    25    26 1   
    43    25    51 1   
    44    26    27 ar  
    45    26    31 ar  
    46    27    28 ar  
    47    27    52 1   
    48    28    29 ar  
    49    28    53 1   
    50    29    30 ar  
    51    29    32 1   
    52    30    31 ar  
    53    30    54 1   
    54    31    55 1   
    55    32    33 1   
    56    32    34 1   
    57    33    38 1   
    58    33    56 1   
    59    33    57 1   
    60    34    35 1   
    61    34    58 1   
    62    34    59 1   
    63    35    36 1   
    64    35    60 1   
    65    35    61 1   
    66    36    37 1   
    67    36    38 1   
    68    37    62 1   
    69    37    63 1   
    70    37    64 1   
    71    38    65 1   
    72    38    66 1   
@<TRIPOS>SUBSTRUCTURE
     1 XR1         1 TEMP              0 ****  ****    0 ROOT
