@<TRIPOS>MOLECULE
XR2
   82    87     1     0     0
SMALL
bcc


@<TRIPOS>ATOM
      1 C1           0.0000     0.0000     0.0000 ca         1 XR2      -0.322100
      2 C2           1.3420     0.0000     0.0000 ca         1 XR2       0.138000
      3 C3           2.1330     0.0000     1.2050 ca         1 XR2      -0.118000
      4 C4           1.6000     0.0000     2.4290 ca         1 XR2      -0.052800
      5 C12          0.1280    -0.0000     2.5720 ca         1 XR2       0.318600
      6 C11         -0.7070    -0.0010     1.3080 ca         1 XR2      -0.174600
      7 N5          -0.4290     0.0000     3.7440 nb         1 XR2      -0.362000
      8 N10         -1.9910    -0.0020     1.3960 na         1 XR2       0.535900
      9 C13         -1.8330    -0.0010     3.8030 ca         1 XR2       0.325100
     10 C14         -2.6200    -0.0030     2.6460 ca         1 XR2      -0.331600
     11 C6          -2.4710    -0.0020     5.0460 ca         1 XR2      -0.057800
     12 C7          -3.8660    -0.0030     5.1250 ca         1 XR2      -0.012000
     13 C8          -4.6350    -0.0050     3.9600 ca         1 XR2       0.004500
     14 C9          -4.0150    -0.0050     2.7120 ca         1 XR2      -0.153800
     15 C9A         -4.8850    -0.0090     1.4960 c3         1 XR2       0.088700
     16 C           -0.6480     0.0010    -1.3170 c          1 XR2       0.592700
     17 O           -0.9230    -1.0540    -1.8850 o          1 XR2      -0.455600
     18 N           -0.8840     1.2750    -1.7980 ns         1 XR2      -0.284400
     19 CA          -1.5100     1.5350    -3.0760 c3         1 XR2       0.039000
     20 CB          -3.0160     1.6270    -2.9150 c3         1 XR2      -0.026200
     21 NG          -3.3510     2.6940    -1.9410 ny         1 XR2      -0.021500
     22 CD          -4.8100     2.9130    -1.7460 c3         1 XR2      -0.021200
     23 N'          -2.6950     4.0380     2.7640 ns         1 XR2      -0.284400
     24 C'          -1.7070     4.9590     2.9460 c          1 XR2       0.592700
     25 O'          -1.8260     6.1470     3.2250 o          1 XR2      -0.455600
     26 C1'         -0.3730     4.3590     2.7700 ca         1 XR2      -0.322100
     27 C2'          0.1980     3.8500     3.8710 ca         1 XR2       0.138000
     28 C3'          1.4980     3.2270     3.8730 ca         1 XR2      -0.118000
     29 C4'          2.2500     3.1020     2.7760 ca         1 XR2      -0.052800
     30 CCX          1.7390     3.6230     1.4910 ca         1 XR2       0.318600
     31 N5'          2.4390     3.5230     0.4020 nb         1 XR2      -0.362000
     32 CDX          1.8890     4.0420    -0.7810 ca         1 XR2       0.325100
     33 CEX          0.6290     4.6510    -0.8050 ca         1 XR2      -0.331600
     34 NAX         -0.1030     4.7450     0.3830 na         1 XR2       0.535900
     35 CBX          0.3730     4.2800     1.4850 ca         1 XR2      -0.174600
     36 C9'          0.0900     5.1650    -1.9860 ca         1 XR2      -0.153800
     37 C8'          0.8240     5.0690    -3.1670 ca         1 XR2       0.004500
     38 C7'          2.0810     4.4630    -3.1620 ca         1 XR2      -0.012000
     39 C6'          2.6120     3.9530    -1.9740 ca         1 XR2      -0.057800
     40 C9X         -1.2510     5.8240    -2.0450 c3         1 XR2       0.088700
     41 CA'         -4.1260     4.3950     2.8920 c3         1 XR2       0.039000
     42 CB'         -4.6760     4.8430     1.5510 c3         1 XR2      -0.026200
     43 NG'         -4.4910     3.7620     0.5450 ny         1 XR2      -0.021500
     44 CD'         -5.0510     4.0680    -0.7940 c3         1 XR2      -0.021200
     45 H2           1.8560    -0.0000    -0.9530 ha         1 XR2       0.140000
     46 H3           3.2120    -0.0000     1.1130 ha         1 XR2       0.167000
     47 H4           2.2370     0.0000     3.3050 ha         1 XR2       0.168000
     48 H10         -2.5450     0.0020     0.5630 hn         1 XR2       0.113200
     49 H6          -1.8810    -0.0010     5.9550 ha         1 XR2       0.167000
     50 H7          -4.3530    -0.0030     6.0930 ha         1 XR2       0.166500
     51 H8          -5.7170    -0.0060     4.0250 ha         1 XR2       0.152000
     52 H91         -4.4500     0.6310     0.7390 hc         1 XR2       0.007200
     53 H92         -5.8710     0.3580     1.7570 hc         1 XR2       0.007200
     54 H93         -4.9650    -1.0190     1.1130 hc         1 XR2       0.007200
     55 HN          -0.6050     2.0560    -1.2380 hn         1 XR2       0.154500
     56 HA1         -1.1350     2.4700    -3.4760 h1         1 XR2       0.087950
     57 HA2         -1.2720     0.7310    -3.7620 h1         1 XR2       0.087950
     58 HB1         -3.4680     1.8590    -3.8720 hx         1 XR2       0.113200
     59 HB2         -3.3990     0.6790    -2.5560 hx         1 XR2       0.113200
     60 HG1         -2.9420     3.5510    -2.2570 hn         1 XR2       0.224050
     61 HG2         -2.9460     2.4550    -1.0570 hn         1 XR2       0.224050
     62 HD1         -5.2690     3.1360    -2.7020 hx         1 XR2       0.125950
     63 HD2         -5.2550     2.0140    -1.3380 hx         1 XR2       0.125950
     64 HN'         -2.4460     3.0940     2.5420 hn         1 XR2       0.154500
     65 H2'         -0.3450     3.9090     4.8070 ha         1 XR2       0.140000
     66 H3'          1.8840     2.8420     4.8090 ha         1 XR2       0.167000
     67 H4'          3.2220     2.6260     2.8270 ha         1 XR2       0.168000
     68 H10'        -1.0020     5.1850     0.3790 hn         1 XR2       0.113200
     69 H8'          0.4170     5.4630    -4.0900 ha         1 XR2       0.152000
     70 H7'          2.6490     4.3910    -4.0820 ha         1 XR2       0.166500
     71 H6'          3.5890     3.4840    -1.9790 ha         1 XR2       0.167000
     72 H91'        -1.6350     5.7690    -3.0560 hc         1 XR2       0.007200
     73 H92'        -1.9320     5.3190    -1.3710 hc         1 XR2       0.007200
     74 H93'        -1.1560     6.8630    -1.7510 hc         1 XR2       0.007200
     75 HA1'        -4.6810     3.5320     3.2370 h1         1 XR2       0.087950
     76 HA2'        -4.2310     5.2000     3.6090 h1         1 XR2       0.087950
     77 HB1'        -4.1510     5.7330     1.2250 hx         1 XR2       0.113200
     78 HB2'        -5.7320     5.0650     1.6520 hx         1 XR2       0.113200
     79 HG1'        -4.9300     2.9310     0.8890 hn         1 XR2       0.224050
     80 HG2'        -3.5110     3.5860     0.4460 hn         1 XR2       0.224050
     81 HD1'        -4.5760     4.9590    -1.1850 hx         1 XR2       0.125950
     82 HD2'        -6.1170     4.2410    -0.7040 hx         1 XR2       0.125950
@<TRIPOS>BOND
     1     1     2 ar  
     2     1     6 ar  
     3     1    16 1   
     4     2     3 ar  
     5     2    45 1   
     6     3     4 ar  
     7     3    46 1   
     8     4     5 ar  
     9     4    47 1   
    10     5     6 ar  
    11     5     7 ar  
    12     6     8 1   
    13     7     9 ar  
    14     8    10 2   
    15     8    48 1   
    16     9    10 ar  
    17     9    11 ar  
    18    10    14 ar  
    19    11    12 ar  
    20    11    49 1   
    21    12    13 ar  
    22    12    50 1   
    23    13    14 ar  
    24    13    51 1   
    25    14    15 1   
    26    15    52 1   
    27    15    53 1   
    28    15    54 1   
    29    16    17 2   
    30    16    18 1   
    31    18    19 1   
    32    18    55 1   
    33    19    20 1   
    34    19    56 1   
    35    19    57 1   
    36    20    21 1   
    37    20    58 1   
    38    20    59 1   
    39    21    22 1   
    40    21    60 1   
    41    21    61 1   
    42    22    44 1   
    43    22    62 1   
    44    22    63 1   
    45    23    24 1   
    46    23    41 1   
    47    23    64 1   
    48    24    25 2   
    49    24    26 1   
    50    26    27 ar  
    51    26    35 ar  
    52    27    28 ar  
    53    27    65 1   
    54    28    29 ar  
    55    28    66 1   
    56    29    30 ar  
    57    29    67 1   
    58    30    31 ar  
    59    30    35 ar  
    60    31    32 ar  
    61    32    33 ar  
    62    32    39 ar  
    63    33    34 2   
    64    33    36 ar  
    65    34    35 1   
    66    34    68 1   
    67    36    37 ar  
    68    36    40 1   
    69    37    38 ar  
    70    37    69 1   
    71    38    39 ar  
    72    38    70 1   
    73    39    71 1   
    74    40    72 1   
    75    40    73 1   
    76    40    74 1   
    77    41    42 1   
    78    41    75 1   
    79    41    76 1   
    80    42    43 1   
    81    42    77 1   
    82    42    78 1   
    83    43    44 1   
    84    43    79 1   
    85    43    80 1   
    86    44    81 1   
    87    44    82 1   
@<TRIPOS>SUBSTRUCTURE
     1 XR2         1 TEMP              0 ****  ****    0 ROOT
