@<TRIPOS>MOLECULE
XRA
   49    52     1     0     0
SMALL
bcc


@<TRIPOS>ATOM
      1 N1         -0.0020   -0.3900    0.2290 nb        1 XRA     -0.783000
      2 O1          4.2080   -0.5790   -2.1790 os        1 XRA     -0.300900
      3 C2          1.3640   -0.2690    0.2210 ca        1 XRA      0.490600
      4 N2         -0.0010    0.1420    2.6210 nb        1 XRA     -0.816000
      5 O2          5.5410    0.1030   -0.0800 os        1 XRA     -0.301900
      6 C3          2.1150    0.0800    1.3820 ca        1 XRA     -0.320600
      7 N3          1.9850    0.6500    3.7790 nh        1 XRA     -0.937500
      8 O3         -5.9400   -2.2240    2.9910 o         1 XRA     -0.592100
      9 C4          1.3430    0.2730    2.6020 ca        1 XRA      0.716200
     10 N4         -2.0690   -0.1140    1.4140 nh        1 XRA     -0.722300
     11 O4         -6.7790   -1.8900   -0.4370 os        1 XRA     -0.351800
     12 N5         -4.9050   -0.7700    1.5460 n         1 XRA     -0.448800
     13 C6         -0.6430   -0.1440    1.4090 ca        1 XRA      0.901900
     14 C7          2.0680   -0.5060   -1.0070 ca        1 XRA     -0.270300
     15 C8          3.4360   -0.3760   -1.0580 ca        1 XRA      0.154100
     16 C9          4.1780    0.0030    0.1150 ca        1 XRA      0.086100
     17 C10         3.5210    0.2240    1.3040 ca        1 XRA     -0.145000
     18 C12         3.5070   -0.9440   -3.3650 c3        1 XRA      0.107700
     19 C14         6.2940    0.5880    1.0250 c3        1 XRA      0.109700
     20 C17        -2.7250   -0.2930    2.7000 c3        1 XRA      0.171800
     21 C18        -4.2530   -0.0800    2.6390 c3        1 XRA      0.076000
     22 C20        -4.2620   -0.5500    0.2740 c3        1 XRA      0.076000
     23 C21        -2.7310   -0.7690    0.2960 c3        1 XRA      0.171800
     24 C22        -5.7180   -1.8660    1.8150 c         1 XRA      0.592600
     25 C23        -6.3860   -2.5860    0.7150 cc        1 XRA      0.185200
     26 C25        -7.4390   -2.8120   -1.2440 cc        1 XRA      0.258600
     27 C26        -7.4660   -4.0530   -0.6380 cd        1 XRA     -0.274300
     28 C27        -6.7930   -3.9070    0.6320 cd        1 XRA     -0.184300
     29 HN3         2.9210    0.3350    3.8770 hn        1 XRA      0.417800
     30 HN3A        1.4440    0.6480    4.6140 hn        1 XRA      0.417800
     31 H7          1.4870   -0.7870   -1.8980 ha        1 XRA      0.160000
     32 H10         4.0950    0.5310    2.1890 ha        1 XRA      0.136000
     33 H12         4.3240   -1.0480   -4.1230 h1        1 XRA      0.048367
     34 H12A        2.7920   -0.1400   -3.6630 h1        1 XRA      0.048367
     35 H12B        2.9720   -1.9140   -3.2240 h1        1 XRA      0.048367
     36 H14         7.3380    0.6380    0.6230 h1        1 XRA      0.044367
     37 H14A        5.9420    1.6020    1.3340 h1        1 XRA      0.044367
     38 H14B        6.2380   -0.1240    1.8840 h1        1 XRA      0.044367
     39 H17        -2.5140   -1.3190    3.1180 h1        1 XRA      0.061700
     40 H17A       -2.3270    0.4720    3.4260 h1        1 XRA      0.061700
     41 H18        -4.6860   -0.4160    3.6230 h1        1 XRA      0.072700
     42 H18A       -4.4660    1.0200    2.5080 h1        1 XRA      0.072700
     43 H20        -4.6810   -1.2320   -0.5170 h1        1 XRA      0.072700
     44 H20A       -4.4740    0.5150   -0.0300 h1        1 XRA      0.072700
     45 H21        -2.5180   -1.8760    0.2980 h1        1 XRA      0.061700
     46 H21A       -2.3350   -0.3370   -0.6670 h1        1 XRA      0.061700
     47 H25        -7.8100   -2.4020   -2.1800 h4        1 XRA      0.057100
     48 H26        -7.9060   -4.9700   -1.0200 ha        1 XRA      0.168000
     49 H27        -6.6440   -4.6840    1.3780 ha        1 XRA      0.177000
@<TRIPOS>BOND
     1    1    3 ar
     2    1   13 ar
     3    2   15 1
     4    2   18 1
     5    3    6 ar
     6    3   14 ar
     7    4    9 ar
     8    4   13 ar
     9    5   16 1
    10    5   19 1
    11    6    9 ar
    12    6   17 ar
    13    7    9 1
    14    7   29 1
    15    7   30 1
    16    8   24 2
    17   10   13 1
    18   10   20 1
    19   10   23 1
    20   11   25 1
    21   11   26 1
    22   12   21 1
    23   12   22 1
    24   12   24 1
    25   14   15 ar
    26   14   31 1
    27   15   16 ar
    28   16   17 ar
    29   17   32 1
    30   18   33 1
    31   18   34 1
    32   18   35 1
    33   19   36 1
    34   19   37 1
    35   19   38 1
    36   20   21 1
    37   20   39 1
    38   20   40 1
    39   21   41 1
    40   21   42 1
    41   22   23 1
    42   22   43 1
    43   22   44 1
    44   23   45 1
    45   23   46 1
    46   24   25 1
    47   25   28 2
    48   26   27 2
    49   26   47 1
    50   27   28 1
    51   27   48 1
    52   28   49 1
@<TRIPOS>SUBSTRUCTURE
     1 XRA         1 TEMP              0 ****  ****    0 ROOT
