@<TRIPOS>MOLECULE
molecule
   19    18     1     0     0
SMALL
bcc


@<TRIPOS>ATOM
      1 CAB          0.0000     0.0000     0.0000 c3         1 XRG       0.123300
      2 NAF          1.4660     0.0000     0.0000 ns         1 XRG      -0.611900
      3 CAI          2.1390     0.0000     1.1680 c          1 XRG       0.775100
      4 OAD          1.5300     0.0000     2.2200 o          1 XRG      -0.565100
      5 NAG          3.4870    -0.0000     1.1690 ns         1 XRG      -0.497400
      6 CAH          4.1760     0.0000     2.3650 c2         1 XRG       0.692800
      7 NAC          3.5250     0.0000     3.4930 n2         1 XRG      -0.869100
      8 NAE          5.5510    -0.0000     2.3660 nu         1 XRG      -0.950200
      9 CAA          6.2820     0.0000     3.6350 c3         1 XRG       0.234100
     10 HAB         -0.3610     0.0020    -1.0210 h1         1 XRG       0.042033
     11 HABA        -0.3610     0.8830     0.5130 h1         1 XRG       0.042033
     12 HABB        -0.3610    -0.8860     0.5090 h1         1 XRG       0.042033
     13 HNAF         1.9660    -0.0250    -0.8660 hn         1 XRG       0.300500
     14 HNAG         3.9880     0.0270     0.3030 hn         1 XRG       0.310500
     15 HNAC         4.0250     0.0000     4.3600 hn         1 XRG       0.397400
     16 HNAE         6.0520    -0.0250     1.4990 hn         1 XRG       0.418800
     17 HAA          6.0200     0.8840     4.2030 h1         1 XRG       0.038367
     18 HAAA         7.3480     0.0010     3.4370 h1         1 XRG       0.038367
     19 HAAB         6.0210    -0.8850     4.2020 h1         1 XRG       0.038367
@<TRIPOS>BOND
     1     1     2 1
     2     2     3 1
     3     3     4 2
     4     3     5 1
     5     5     6 1
     6     6     7 2
     7     6     8 1
     8     8     9 1
     9     1    10 1
    10     1    11 1
    11     1    12 1
    12     2    13 1
    13     5    14 1
    14     7    15 1
    15     8    16 1
    16     9    17 1
    17     9    18 1
    18     9    19 1
@<TRIPOS>SUBSTRUCTURE
     1 XRG         1 TEMP              0 ****  ****    0 ROOT
