@<TRIPOS>MOLECULE
molecule
   45    45     1     0     0
SMALL
bcc


@<TRIPOS>ATOM
      1 O13          0.0000     0.0000     0.0000 o          1 XRJ      -0.585100
      2 C12          1.2130     0.0000     0.0000 c          1 XRJ       0.648100
      3 N14          1.8870     0.0000     1.1670 ns         1 XRJ      -0.596900
      4 C15          1.1550     0.0020     2.4360 c3         1 XRJ       0.104300
      5 C11          1.9670    -0.0090    -1.3050 c3         1 XRJ      -0.159400
      6 C3           0.9720    -0.0140    -2.4680 c3         1 XRJ       0.178500
      7 C4           1.7300     0.0670    -3.8060 c3         1 XRJ       0.085100
      8 O21          3.1400     0.0860    -3.5780 oh         1 XRJ      -0.609800
      9 C5           1.3280    -1.2130    -4.5750 c3         1 XRJ       0.085100
     10 O20          1.1340    -0.9280    -5.9620 oh         1 XRJ      -0.604800
     11 C6          -0.0100    -1.6140    -3.9060 c3         1 XRJ       0.154500
     12 C18         -0.2740    -3.1110    -4.0800 c3         1 XRJ       0.132400
     13 O19          0.8880    -3.8480    -3.6910 oh         1 XRJ      -0.606800
     14 N2           0.2130    -1.2840    -2.4750 n3         1 XRJ      -0.670600
     15 C1           0.9660    -2.3500    -1.8000 c3         1 XRJ       0.123800
     16 C7          -0.0120    -3.3740    -1.2180 c3         1 XRJ      -0.070400
     17 C8           0.7720    -4.5150    -0.5670 c3         1 XRJ      -0.079400
     18 C9          -0.2050    -5.5380     0.0160 c3         1 XRJ      -0.082400
     19 C10          0.5780    -6.6790     0.6670 c3         1 XRJ      -0.092100
     20 H14          2.8870     0.0340     1.1670 hn         1 XRJ       0.309500
     21 H111         2.5890    -0.8940    -1.3570 hc         1 XRJ       0.075700
     22 H112         2.5900     0.8750    -1.3680 hc         1 XRJ       0.075700
     23 H151         0.5250    -0.8780     2.4920 h1         1 XRJ       0.040367
     24 H152         1.8590    -0.0060     3.2600 h1         1 XRJ       0.040367
     25 H153         0.5390     0.8910     2.4960 h1         1 XRJ       0.040367
     26 H3           0.2890     0.8220    -2.3810 h1         1 XRJ       0.090700
     27 H4           1.4210     0.9460    -4.3580 h1         1 XRJ       0.057700
     28 H21          3.5440     0.7120    -4.1560 ho         1 XRJ       0.403000
     29 H5           2.0710    -1.9890    -4.4370 h1         1 XRJ       0.073700
     30 H20          1.9020    -1.1840    -6.4460 ho         1 XRJ       0.403000
     31 H6          -0.8260    -1.0270    -4.3070 h1         1 XRJ       0.092700
     32 H181        -1.1120    -3.4050    -3.4600 h1         1 XRJ       0.045700
     33 H182        -0.5030    -3.3190    -5.1180 h1         1 XRJ       0.045700
     34 H19          1.0060    -4.5800    -4.2740 ho         1 XRJ       0.388000
     35 H11C         1.5590    -1.9230    -1.0010 h1         1 XRJ       0.059700
     36 H12C         1.6180    -2.8400    -2.5130 h1         1 XRJ       0.059700
     37 H71C        -0.6360    -2.8940    -0.4730 hc         1 XRJ       0.050200
     38 H72C        -0.6350    -3.7700    -2.0100 hc         1 XRJ       0.050200
     39 H81C         1.3960    -4.1190     0.2250 hc         1 XRJ       0.038200
     40 H82C         1.3950    -4.9950    -1.3120 hc         1 XRJ       0.038200
     41 H91C        -0.8290    -5.9340    -0.7770 hc         1 XRJ       0.039700
     42 H92C        -0.8290    -5.0580     0.7600 hc         1 XRJ       0.039700
     43 H101         1.2170    -6.2810     1.4450 hc         1 XRJ       0.030367
     44 H102         1.1850    -7.1730    -0.0820 hc         1 XRJ       0.030367
     45 H103        -0.1150    -7.3920     1.0980 hc         1 XRJ       0.030367
@<TRIPOS>BOND
     1     1     2 2
     2     2     3 1
     3     2     5 1
     4     3     4 1
     5     5     6 1
     6     6     7 1
     7     6    14 1
     8     7     8 1
     9     7     9 1
    10     9    10 1
    11     9    11 1
    12    11    12 1
    13    11    14 1
    14    12    13 1
    15    14    15 1
    16    15    16 1
    17    16    17 1
    18    17    18 1
    19    18    19 1
    20     3    20 1
    21     5    21 1
    22     5    22 1
    23     4    23 1
    24     4    24 1
    25     4    25 1
    26     6    26 1
    27     7    27 1
    28     8    28 1
    29     9    29 1
    30    10    30 1
    31    11    31 1
    32    12    32 1
    33    12    33 1
    34    13    34 1
    35    15    35 1
    36    15    36 1
    37    16    37 1
    38    16    38 1
    39    17    39 1
    40    17    40 1
    41    18    41 1
    42    18    42 1
    43    19    43 1
    44    19    44 1
    45    19    45 1
@<TRIPOS>SUBSTRUCTURE
     1 XRJ         1 TEMP              0 ****  ****    0 ROOT
