@<TRIPOS>MOLECULE
XRO
   34    36     1     0     0
SMALL
bcc


@<TRIPOS>ATOM
      1 OAB          0.0000     0.0000     0.0000 o          1 XRO      -0.579000
      2 CAP          1.3470     0.0000     0.0000 c2         1 XRO       0.436000
      3 OAE          1.9530     0.0000     1.0520 o          1 XRO      -0.579000
      4 CAS          2.0870    -0.0010    -1.2830 c2         1 XRO      -0.112000
      5 NAN          1.4100    -0.1250    -2.4770 ns         1 XRO       0.204000
      6 CAU          2.0630    -0.1270    -3.6510 c2         1 XRO       0.116000
      7 OAC          1.4290    -0.2400    -4.6820 o          1 XRO      -0.471000
      8 NAO          3.4020    -0.0080    -3.7160 ns         1 XRO       0.041000
      9 CAV          4.1320     0.1180    -2.5890 c2         1 XRO       0.286000
     10 OAD          5.3430     0.2270    -2.6450 o          1 XRO      -0.405000
     11 CAT          3.4400     0.1280    -1.2940 c2         1 XRO      -0.267000
     12 CAM          4.2130     0.2670    -0.0080 c3         1 XRO      -0.314000
     13 CAL          4.6400    -1.1180     0.4830 DU         1 XRO      -0.181000
     14 CAR          5.4120    -0.9800     1.7690 ca         1 XRO      -0.009000
     15 CAI          6.7850    -0.8150     1.7380 ca         1 XRO      -0.111500
     16 CAG          7.4930    -0.6880     2.9180 ca         1 XRO      -0.109500
     17 CAQ          6.8290    -0.7240     4.1290 ca         1 XRO      -0.140000
     18 CAK          7.6020    -0.5860     5.4170 c3         1 XRO       0.067000
     19 CAF          7.6890     0.8370     5.7850 c1         1 XRO      -0.105000
     20 NAA          7.7480     1.9310     6.0870 n1         1 XRO      -0.081000
     21 CAH          5.4570    -0.8860     4.1620 ca         1 XRO      -0.109500
     22 CAJ          4.7480    -1.0100     2.9810 ca         1 XRO      -0.111500
     23 H2           3.5060    -0.4020    -4.6300 hn         1 XRO       0.120000
     24 H4           3.5870    -0.0940     0.7990 hc         1 XRO       0.257000
     25 H5           4.9650    -0.4700    -0.2610 DU         1 XRO       0.226000
     26 H6           4.0190    -1.6870     1.1630 ha         1 XRO       0.067500
     27 H7           4.4170    -1.5910    -0.4660 ha         1 XRO       0.067500
     28 H8           7.4500    -0.3720     1.0070 ha         1 XRO       0.146000
     29 H9           8.4540    -0.5590     3.4020 ha         1 XRO       0.125500
     30 H10          8.2780    -1.4270     5.3250 hc         1 XRO       0.069000
     31 H11          7.1950    -1.1570     6.2420 hc         1 XRO       0.069000
     32 H12          4.5980    -0.9680     4.8170 ha         1 XRO       0.125500
     33 H13          3.7590    -1.2220     2.5910 ha         1 XRO       0.146000
     34 H14          0.4740     0.1540    -2.6960 hn         1 XRO       0.116000
@<TRIPOS>BOND
     1     1     2 1   
     2     2     3 1   
     3     2     4 1   
     4     4     5 1   
     5     4    11 1   
     6     5     6 1   
     7     5    34 1   
     8     6     7 1   
     9     6     8 1   
    10     8     9 1   
    11     8    23 1   
    12     9    10 1   
    13     9    11 1   
    14    11    12 1   
    15    12    13 1   
    16    12    24 1   
    17    12    25 1   
    18    13    14 1   
    19    13    25 1   
    20    13    26 1   
    21    13    27 1   
    22    14    15 1   
    23    14    22 1   
    24    15    16 1   
    25    15    28 1   
    26    16    17 1   
    27    16    29 1   
    28    17    18 1   
    29    17    21 1   
    30    18    19 1   
    31    18    30 1   
    32    18    31 1   
    33    19    20 1   
    34    21    22 1   
    35    21    32 1   
    36    22    33 1   
@<TRIPOS>SUBSTRUCTURE
     1 XRO         1 TEMP              0 ****  ****    0 ROOT
