@<TRIPOS>MOLECULE
molecule
   34    35     1     0     0
SMALL
bcc


@<TRIPOS>ATOM
      1 OAB          0.0000     0.0000     0.0000 o          1 XRO      -0.798800
      2 CAP          1.3470     0.0000     0.0000 c          1 XRO       0.889800
      3 OAE          1.9530     0.0000     1.0520 o          1 XRO      -0.798800
      4 CAS          2.0870    -0.0010    -1.2830 cc         1 XRO       0.036400
      5 NAN          1.4100    -0.1250    -2.4770 ns         1 XRO      -0.413100
      6 CAU          2.0630    -0.1270    -3.6510 c          1 XRO       0.739500
      7 OAC          1.4290    -0.2400    -4.6820 o          1 XRO      -0.702500
      8 NAO          3.4020    -0.0080    -3.7160 ns         1 XRO      -0.570500
      9 CAV          4.1320     0.1180    -2.5890 c          1 XRO       0.719700
     10 OAD          5.3430     0.2270    -2.6450 o          1 XRO      -0.640500
     11 CAT          3.4400     0.1280    -1.2940 cd         1 XRO      -0.300400
     12 CAM          4.2130     0.2670    -0.0080 c3         1 XRO      -0.211200
     13 CAL          4.6400    -1.1180     0.4830 c3         1 XRO      -0.141100
     14 CAR          5.4120    -0.9800     1.7690 ca         1 XRO      -0.031300
     15 CAI          6.7850    -0.8150     1.7380 ca         1 XRO      -0.128000
     16 CAG          7.4930    -0.6880     2.9180 ca         1 XRO      -0.135500
     17 CAQ          6.8290    -0.7240     4.1290 ca         1 XRO      -0.120300
     18 CAK          7.6020    -0.5860     5.4170 c3         1 XRO      -0.018000
     19 CAF          7.6890     0.8370     5.7850 c1         1 XRO       0.263700
     20 NAA          7.7480     1.9310     6.0870 n1         1 XRO      -0.383800
     21 CAH          5.4570    -0.8860     4.1620 ca         1 XRO      -0.135500
     22 CAJ          4.7480    -1.0100     2.9810 ca         1 XRO      -0.128000
     23 H2           3.5060    -0.4020    -4.6300 hn         1 XRO       0.344500
     24 H4           3.5870    -0.0940     0.7990 hc         1 XRO       0.212200
     25 H5           4.9650    -0.4700    -0.2610 hc         1 XRO       0.212200
     26 H6           4.0190    -1.6870     1.1630 hc         1 XRO       0.050200
     27 H7           4.4170    -1.5910    -0.4660 hc         1 XRO       0.050200
     28 H8           7.4500    -0.3720     1.0070 ha         1 XRO       0.167500
     29 H9           8.4540    -0.5590     3.4020 ha         1 XRO       0.147000
     30 H10          8.2780    -1.4270     5.3250 hc         1 XRO       0.074700
     31 H11          7.1950    -1.1570     6.2420 hc         1 XRO       0.074700
     32 H12          4.5980    -0.9680     4.8170 ha         1 XRO       0.147000
     33 H13          3.7590    -1.2220     2.5910 ha         1 XRO       0.167500
     34 H14          0.4740     0.1540    -2.6960 hn         1 XRO       0.359500
@<TRIPOS>BOND
     1    15    16 ar
     2    15    14 ar
     3    16    17 ar
     4    14    13 1
     5    14    22 ar
     6    13    12 1
     7    17    18 1
     8    17    21 ar
     9    18    19 1
    10    22    21 ar
    11    19    20 3
    12    12    11 1
    13    10     9 2
    14    11     9 1
    15    11     4 2
    16     9     8 1
    17     3     2 1
    18     4     2 1
    19     4     5 1
    20     2     1 1
    21     8     6 1
    22     5     6 1
    23     6     7 2
    24     8    23 1
    25    12    24 1
    26    12    25 1
    27    13    26 1
    28    13    27 1
    29    15    28 1
    30    16    29 1
    31    18    30 1
    32    18    31 1
    33    21    32 1
    34    22    33 1
    35     5    34 1
@<TRIPOS>SUBSTRUCTURE
     1 XRO         1 TEMP              0 ****  ****    0 ROOT
