@<TRIPOS>MOLECULE
molecule
   33    33     1     0     0
SMALL
bcc


@<TRIPOS>ATOM
      1 C10          0.0000     0.0000     0.0000 cc         1 XRS       0.639800
      2 N13          1.3090     0.0000     0.0000 nd         1 XRS      -0.760000
      3 C9           1.7530     0.0000     1.2680 cd         1 XRS       0.333200
      4 C8           0.6870     0.0000     2.0870 cc         1 XRS      -0.288600
      5 N12         -0.4310     0.0010     1.2880 na         1 XRS      -0.195900
      6 O14         -0.7920     0.0050    -1.1010 os         1 XRS      -0.449100
      7 C6          -0.1370     0.0090    -2.3700 c3         1 XRS       0.164400
      8 C5          -1.1860     0.0140    -3.4840 c3         1 XRS      -0.080400
      9 C4          -0.4880    -0.0980    -4.8420 c3         1 XRS       0.167500
     10 N11          0.3460     1.0910    -5.0630 n3         1 XRS      -0.726600
     11 C3          -1.5400    -0.1960    -5.9490 c3         1 XRS      -0.129100
     12 C2           1.1960     0.9250    -6.2490 c3         1 XRS       0.147600
     13 C1          -0.4810     2.3010    -5.1750 c3         1 XRS       0.147600
     14 C7          -1.8250     0.0010     1.7400 c3         1 XRS       0.039600
     15 H9           2.7920    -0.0000     1.5770 h4         1 XRS       0.039100
     16 H8           0.7060     0.0010     3.1700 h4         1 XRS       0.174000
     17 H71C        -1.8540     0.0110     2.8230 h1         1 XRS       0.052367
     18 H72C        -2.3290     0.8800     1.3570 h1         1 XRS       0.052367
     19 H73C        -2.3230    -0.8890     1.3740 h1         1 XRS       0.052367
     20 H61C         0.4820     0.8940    -2.4540 h1         1 XRS       0.059200
     21 H62C         0.4820    -0.8750    -2.4610 h1         1 XRS       0.059200
     22 H51C        -1.8570    -0.8270    -3.3530 hc         1 XRS       0.053700
     23 H52C        -1.7520     0.9370    -3.4440 hc         1 XRS       0.053700
     24 H4           0.1350    -0.9840    -4.8560 h1         1 XRS       0.066700
     25 H31C        -2.2250     0.6400    -5.8710 hc         1 XRS       0.039700
     26 H32C        -2.0890    -1.1240    -5.8440 hc         1 XRS       0.039700
     27 H33C        -1.0510    -0.1730    -6.9150 hc         1 XRS       0.039700
     28 H21C         1.4750    -0.1170    -6.3510 h1         1 XRS       0.034200
     29 H22C         0.6510     1.2400    -7.1310 h1         1 XRS       0.034200
     30 H23C         2.0890     1.5290    -6.1410 h1         1 XRS       0.034200
     31 H11C        -0.8790     2.3740    -6.1790 h1         1 XRS       0.034200
     32 H12C         0.1260     3.1730    -4.9620 h1         1 XRS       0.034200
     33 H13C        -1.2970     2.2470    -4.4650 h1         1 XRS       0.034200
@<TRIPOS>BOND
     1     1     2 2
     2     1     5 1
     3     1     6 1
     4     2     3 1
     5     3     4 2
     6     4     5 1
     7     5    14 1
     8     6     7 1
     9     7     8 1
    10     8     9 1
    11     9    10 1
    12     9    11 1
    13    10    12 1
    14    10    13 1
    15     3    15 1
    16     4    16 1
    17    14    17 1
    18    14    18 1
    19    14    19 1
    20     7    20 1
    21     7    21 1
    22     8    22 1
    23     8    23 1
    24     9    24 1
    25    11    25 1
    26    11    26 1
    27    11    27 1
    28    12    28 1
    29    12    29 1
    30    12    30 1
    31    13    31 1
    32    13    32 1
    33    13    33 1
@<TRIPOS>SUBSTRUCTURE
     1 XRS         1 TEMP              0 ****  ****    0 ROOT
