@<TRIPOS>MOLECULE
XRS
   33    33     1     0     0
SMALL
bcc


@<TRIPOS>ATOM
      1 C10          0.0000     0.0000     0.0000 cc         1 XRS       0.456800
      2 N13          1.3090     0.0000     0.0000 nd         1 XRS      -0.697000
      3 C9           1.7530     0.0000     1.2680 cd         1 XRS       0.352200
      4 C8           0.6870     0.0000     2.0870 cc         1 XRS      -0.452600
      5 N12         -0.4310     0.0010     1.2880 na         1 XRS       0.277100
      6 O14         -0.7920     0.0050    -1.1010 os         1 XRS      -0.428100
      7 C6          -0.1370     0.0090    -2.3700 c3         1 XRS       0.225400
      8 C5          -1.1860     0.0140    -3.4840 c3         1 XRS      -0.044400
      9 C4          -0.4880    -0.0980    -4.8420 c3         1 XRS       0.132500
     10 N11          0.3460     1.0910    -5.0630 n3         1 XRS      -0.541600
     11 C3          -1.5400    -0.1960    -5.9490 c3         1 XRS      -0.043100
     12 C2           1.1960     0.9250    -6.2490 c3         1 XRS       0.173100
     13 C1          -0.4810     2.3010    -5.1750 c3         1 XRS       0.173100
     14 C7          -1.8250     0.0010     1.7400 c3         1 XRS      -0.003400
     15 H9           2.7920    -0.0000     1.5770 h4         1 XRS       0.001100
     16 H8           0.7060     0.0010     3.1700 h4         1 XRS       0.154000
     17 H71C        -1.8540     0.0110     2.8230 h1         1 XRS       0.021700
     18 H72C        -2.3290     0.8800     1.3570 h1         1 XRS       0.021700
     19 H73C        -2.3230    -0.8890     1.3740 h1         1 XRS       0.021700
     20 H61C         0.4820     0.8940    -2.4540 h1         1 XRS       0.021200
     21 H62C         0.4820    -0.8750    -2.4610 h1         1 XRS       0.021200
     22 H51C        -1.8570    -0.8270    -3.3530 hc         1 XRS       0.026200
     23 H52C        -1.7520     0.9370    -3.4440 hc         1 XRS       0.026200
     24 H4           0.1350    -0.9840    -4.8560 h1         1 XRS       0.039700
     25 H31C        -2.2250     0.6400    -5.8710 hc         1 XRS       0.012033
     26 H32C        -2.0890    -1.1240    -5.8440 hc         1 XRS       0.012033
     27 H33C        -1.0510    -0.1730    -6.9150 hc         1 XRS       0.012033
     28 H21C         1.4750    -0.1170    -6.3510 h1         1 XRS       0.005033
     29 H22C         0.6510     1.2400    -7.1310 h1         1 XRS       0.005033
     30 H23C         2.0890     1.5290    -6.1410 h1         1 XRS       0.005033
     31 H11C        -0.8790     2.3740    -6.1790 h1         1 XRS       0.005033
     32 H12C         0.1260     3.1730    -4.9620 h1         1 XRS       0.005033
     33 H13C        -1.2970     2.2470    -4.4650 h1         1 XRS       0.005033
@<TRIPOS>BOND
     1     1     2 2   
     2     1     5 1   
     3     1     6 1   
     4     2     3 1   
     5     3     4 2   
     6     3    15 1   
     7     4     5 1   
     8     4    16 1   
     9     5    14 1   
    10     6     7 1   
    11     7     8 1   
    12     7    20 1   
    13     7    21 1   
    14     8     9 1   
    15     8    22 1   
    16     8    23 1   
    17     9    10 1   
    18     9    11 1   
    19     9    24 1   
    20    10    12 1   
    21    10    13 1   
    22    11    25 1   
    23    11    26 1   
    24    11    27 1   
    25    12    28 1   
    26    12    29 1   
    27    12    30 1   
    28    13    31 1   
    29    13    32 1   
    30    13    33 1   
    31    14    17 1   
    32    14    18 1   
    33    14    19 1   
@<TRIPOS>SUBSTRUCTURE
     1 XRS         1 TEMP              0 ****  ****    0 ROOT
