@<TRIPOS>MOLECULE
molecule
   33    32     1     0     0
SMALL
bcc


@<TRIPOS>ATOM
      1 N1           0.0000     0.0000     0.0000 n3         1 XRX      -0.728600
      2 C2           1.5750     1.3080     2.1260 c3         1 XRX       0.168400
      3 O3           2.0590     1.3080     3.4940 os         1 XRX      -0.447900
      4 C4          -0.5270    -1.2010     0.6640 c3         1 XRX       0.147100
      5 N5           2.2050     2.4600     5.5190 n          1 XRX      -0.489800
      6 O6           1.1580     3.3190     3.7590 o          1 XRX      -0.608000
      7 C7           1.4690     0.0000     0.0000 c3         1 XRX       0.168500
      8 C8           1.9800     0.0000     1.4420 c3         1 XRX      -0.080400
      9 C9           1.7850     2.3960     4.2400 c          1 XRX       0.753100
     10 C10         -0.5270     0.1190    -1.3660 c3         1 XRX       0.147100
     11 C11          1.9790    -1.2490    -0.7220 c3         1 XRX      -0.130100
     12 C12          1.9080     3.6430     6.3290 c3         1 XRX       0.113300
     13 C13          2.9610     1.3460     6.0980 c3         1 XRX       0.113300
     14 H41C        -0.3350    -1.1380     1.7290 h1         1 XRX       0.034367
     15 H42C        -0.0400    -2.0800     0.2600 h1         1 XRX       0.034367
     16 H43C        -1.5940    -1.2690     0.4930 h1         1 XRX       0.034367
     17 H7           1.8300     0.8840    -0.5110 h1         1 XRX       0.065700
     18 H101         0.1570     0.7070    -1.9660 h1         1 XRX       0.034367
     19 H102        -0.6320    -0.8670    -1.8000 h1         1 XRX       0.034367
     20 H103        -1.4940     0.6070    -1.3390 h1         1 XRX       0.034367
     21 H21C         0.4950     1.3960     2.1250 h1         1 XRX       0.060200
     22 H22C         2.0060     2.1440     1.5900 h1         1 XRX       0.060200
     23 H81C         1.5480    -0.8370     1.9780 hc         1 XRX       0.054200
     24 H82C         3.0590    -0.0890     1.4420 hc         1 XRX       0.054200
     25 H121         2.3570     4.5160     5.8720 h1         1 XRX       0.041700
     26 H122         2.3120     3.5090     7.3260 h1         1 XRX       0.041700
     27 H123         0.8350     3.7790     6.3900 h1         1 XRX       0.041700
     28 H131         3.2170     1.5790     7.1250 h1         1 XRX       0.041700
     29 H132         2.3570     0.4470     6.0710 h1         1 XRX       0.041700
     30 H133         3.8680     1.1890     5.5270 h1         1 XRX       0.041700
     31 H111         1.3770    -1.4270    -1.6050 hc         1 XRX       0.041033
     32 H112         3.0120    -1.1020    -1.0120 hc         1 XRX       0.041033
     33 H113         1.9080    -2.1030    -0.0590 hc         1 XRX       0.041033
@<TRIPOS>BOND
     1     1     4 1
     2     1     7 1
     3     1    10 1
     4     2     3 1
     5     2     8 1
     6     3     9 1
     7     5     9 1
     8     5    12 1
     9     5    13 1
    10     6     9 2
    11     7     8 1
    12     7    11 1
    13     4    14 1
    14     4    15 1
    15     4    16 1
    16     7    17 1
    17    10    18 1
    18    10    19 1
    19    10    20 1
    20     2    21 1
    21     2    22 1
    22     8    23 1
    23     8    24 1
    24    12    25 1
    25    12    26 1
    26    12    27 1
    27    13    28 1
    28    13    29 1
    29    13    30 1
    30    11    31 1
    31    11    32 1
    32    11    33 1
@<TRIPOS>SUBSTRUCTURE
     1 XRX         1 TEMP              0 ****  ****    0 ROOT
