@<TRIPOS>MOLECULE
XRX
   33    32     1     0     0
SMALL
bcc


@<TRIPOS>ATOM
      1 N1           0.0000     0.0000     0.0000 n3         1 XRX      -0.544600
      2 C2           1.5750     1.3080     2.1260 c3         1 XRX       0.237400
      3 O3           2.0590     1.3080     3.4940 os         1 XRX      -0.428900
      4 C4          -0.5270    -1.2010     0.6640 c3         1 XRX       0.173600
      5 N5           2.2050     2.4600     5.5190 n          1 XRX      -0.151800
      6 O6           1.1580     3.3190     3.7590 o          1 XRX      -0.655000
      7 C7           1.4690     0.0000     0.0000 c3         1 XRX       0.133500
      8 C8           1.9800     0.0000     1.4420 c3         1 XRX      -0.045400
      9 C9           1.7850     2.3960     4.2400 c          1 XRX       0.695100
     10 C10         -0.5270     0.1190    -1.3660 c3         1 XRX       0.173600
     11 C11          1.9790    -1.2490    -0.7220 c3         1 XRX      -0.044100
     12 C12          1.9080     3.6430     6.3290 c3         1 XRX       0.099300
     13 C13          2.9610     1.3460     6.0980 c3         1 XRX       0.099300
     14 H41C        -0.3350    -1.1380     1.7290 h1         1 XRX       0.005200
     15 H42C        -0.0400    -2.0800     0.2600 h1         1 XRX       0.005200
     16 H43C        -1.5940    -1.2690     0.4930 h1         1 XRX       0.005200
     17 H7           1.8300     0.8840    -0.5110 h1         1 XRX       0.038700
     18 H101         0.1570     0.7070    -1.9660 h1         1 XRX       0.005200
     19 H102        -0.6320    -0.8670    -1.8000 h1         1 XRX       0.005200
     20 H103        -1.4940     0.6070    -1.3390 h1         1 XRX       0.005200
     21 H21C         0.4950     1.3960     2.1250 h1         1 XRX       0.021200
     22 H22C         2.0060     2.1440     1.5900 h1         1 XRX       0.021200
     23 H81C         1.5480    -0.8370     1.9780 hc         1 XRX       0.026200
     24 H82C         3.0590    -0.0890     1.4420 hc         1 XRX       0.026200
     25 H121         2.3570     4.5160     5.8720 h1         1 XRX       0.009367
     26 H122         2.3120     3.5090     7.3260 h1         1 XRX       0.009367
     27 H123         0.8350     3.7790     6.3900 h1         1 XRX       0.009367
     28 H131         3.2170     1.5790     7.1250 h1         1 XRX       0.009367
     29 H132         2.3570     0.4470     6.0710 h1         1 XRX       0.009367
     30 H133         3.8680     1.1890     5.5270 h1         1 XRX       0.009367
     31 H111         1.3770    -1.4270    -1.6050 hc         1 XRX       0.013033
     32 H112         3.0120    -1.1020    -1.0120 hc         1 XRX       0.013033
     33 H113         1.9080    -2.1030    -0.0590 hc         1 XRX       0.013033
@<TRIPOS>BOND
     1     1     4 1   
     2     1     7 1   
     3     1    10 1   
     4     2     3 1   
     5     2     8 1   
     6     2    21 1   
     7     2    22 1   
     8     3     9 1   
     9     4    14 1   
    10     4    15 1   
    11     4    16 1   
    12     5     9 1   
    13     5    12 1   
    14     5    13 1   
    15     6     9 2   
    16     7     8 1   
    17     7    11 1   
    18     7    17 1   
    19     8    23 1   
    20     8    24 1   
    21    10    18 1   
    22    10    19 1   
    23    10    20 1   
    24    11    31 1   
    25    11    32 1   
    26    11    33 1   
    27    12    25 1   
    28    12    26 1   
    29    12    27 1   
    30    13    28 1   
    31    13    29 1   
    32    13    30 1   
@<TRIPOS>SUBSTRUCTURE
     1 XRX         1 TEMP              0 ****  ****    0 ROOT
