@<TRIPOS>MOLECULE
XS6
   36    35     1     0     0
SMALL
bcc


@<TRIPOS>ATOM
      1 C2           0.0000     0.0000     0.0000 c3         1 XS6      -0.051200
      2 C3           1.5300     0.0000     0.0000 c3         1 XS6      -0.039400
      3 C4           2.0390     0.0000     1.4420 c3         1 XS6       0.156800
      4 C6           4.0340     0.0000     2.8140 c3         1 XS6       0.143800
      5 C7           5.5640     0.0000     2.7750 c3         1 XS6      -0.026400
      6 C8           6.1120     0.0010     4.2030 c3         1 XS6      -0.028400
      7 C9           7.6410     0.0010     4.1630 c3         1 XS6      -0.012400
      8 C10          8.1890     0.0010     5.5910 c3         1 XS6      -0.092400
      9 C11          9.6960     0.0000     5.5510 c          1 XS6       0.568100
     10 N1          -0.4890    -0.0010    -1.3850 nz         1 XS6       0.086400
     11 N5           3.5090    -0.0000     1.4430 n7         1 XS6      -0.578200
     12 N13         10.4000     0.0000     6.7010 ns         1 XS6      -0.056400
     13 O12         10.2740     0.0010     4.4850 o          1 XS6      -0.617100
     14 O14         11.8160     0.0010     6.6630 oh         1 XS6      -0.435100
     15 H1          -0.3610    -0.8840     0.5110 hx         1 XS6       0.085200
     16 H2          -0.3610     0.8850     0.5100 hx         1 XS6       0.085200
     17 H3           1.8920    -0.8850    -0.5110 hc         1 XS6       0.039200
     18 H4           1.8920     0.8850    -0.5110 hc         1 XS6       0.039200
     19 H5           1.6780     0.8850     1.9530 h1         1 XS6       0.016700
     20 H6           1.6780    -0.8840     1.9530 h1         1 XS6       0.016700
     21 H7           3.6870     0.8850     3.3340 h1         1 XS6       0.011700
     22 H8           3.6870    -0.8840     3.3350 h1         1 XS6       0.011700
     23 H9           5.9110     0.8850     2.2550 hc         1 XS6       0.025200
     24 H10          5.9110    -0.8840     2.2550 hc         1 XS6       0.025200
     25 H11          5.7650     0.8850     4.7230 hc         1 XS6       0.013200
     26 H12          5.7650    -0.8840     4.7230 hc         1 XS6       0.013200
     27 H13          7.9890     0.8850     3.6430 hc         1 XS6       0.033700
     28 H14          7.9890    -0.8840     3.6430 hc         1 XS6       0.033700
     29 H15          7.8420     0.8860     6.1110 hc         1 XS6       0.025200
     30 H16          7.8410    -0.8830     6.1110 hc         1 XS6       0.025200
     31 H17         -1.4890     0.0450    -1.3860 hn         1 XS6       0.223800
     32 H18         -0.1180     0.7920    -1.8710 hn         1 XS6       0.223800
     33 H20          3.8430    -0.8100     0.9580 hn         1 XS6       0.257800
     34 H22          9.9230    -0.0160     7.5800 hn         1 XS6       0.153500
     35 H23         12.1540     0.0300     7.5430 ho         1 XS6       0.395000
     36 H131        -0.1940    -0.8410    -1.8430 hn         1 XS6       0.223800
@<TRIPOS>BOND
     1     1     2 1   
     2     1    10 1   
     3     1    15 1   
     4     1    16 1   
     5     2     3 1   
     6     2    17 1   
     7     2    18 1   
     8     3    11 1   
     9     3    19 1   
    10     3    20 1   
    11     4     5 1   
    12     4    11 1   
    13     4    21 1   
    14     4    22 1   
    15     5     6 1   
    16     5    23 1   
    17     5    24 1   
    18     6     7 1   
    19     6    25 1   
    20     6    26 1   
    21     7     8 1   
    22     7    27 1   
    23     7    28 1   
    24     8     9 1   
    25     8    29 1   
    26     8    30 1   
    27     9    12 1   
    28     9    13 2   
    29    10    31 1   
    30    10    32 1   
    31    10    36 1   
    32    11    33 1   
    33    12    14 1   
    34    12    34 1   
    35    14    35 1   
@<TRIPOS>SUBSTRUCTURE
     1 XS6         1 TEMP              0 ****  ****    0 ROOT
