@<TRIPOS>MOLECULE
molecule
   36    35     1     0     0
SMALL
bcc


@<TRIPOS>ATOM
      1 C2           0.0000     0.0000     0.0000 c3         1 XS6       0.090800
      2 C3           1.5300     0.0000     0.0000 c3         1 XS6      -0.115400
      3 C4           2.0390     0.0000     1.4420 c3         1 XS6       0.167800
      4 C6           4.0340     0.0000     2.8140 c3         1 XS6       0.154800
      5 C7           5.5640     0.0000     2.7750 c3         1 XS6      -0.079400
      6 C8           6.1120     0.0010     4.2030 c3         1 XS6      -0.084400
      7 C9           7.6410     0.0010     4.1630 c3         1 XS6      -0.064400
      8 C10          8.1890     0.0010     5.5910 c3         1 XS6      -0.149400
      9 C11          9.6960     0.0000     5.5510 c          1 XS6       0.669100
     10 N1          -0.4890    -0.0010    -1.3850 nz         1 XS6      -0.810600
     11 N5           3.5090    -0.0000     1.4430 n7         1 XS6      -0.813200
     12 N13         10.4000     0.0000     6.7010 ns         1 XS6      -0.472400
     13 O12         10.2740     0.0010     4.4850 o          1 XS6      -0.573100
     14 O14         11.8160     0.0010     6.6630 oh         1 XS6      -0.359100
     15 H1          -0.3610    -0.8840     0.5110 hx         1 XS6       0.112200
     16 H2          -0.3610     0.8850     0.5100 hx         1 XS6       0.112200
     17 H3           1.8920    -0.8850    -0.5110 hc         1 XS6       0.073200
     18 H4           1.8920     0.8850    -0.5110 hc         1 XS6       0.073200
     19 H5           1.6780     0.8850     1.9530 h1         1 XS6       0.045200
     20 H6           1.6780    -0.8840     1.9530 h1         1 XS6       0.045200
     21 H7           3.6870     0.8850     3.3340 h1         1 XS6       0.039200
     22 H8           3.6870    -0.8840     3.3350 h1         1 XS6       0.039200
     23 H9           5.9110     0.8850     2.2550 hc         1 XS6       0.055700
     24 H10          5.9110    -0.8840     2.2550 hc         1 XS6       0.055700
     25 H11          5.7650     0.8850     4.7230 hc         1 XS6       0.041700
     26 H12          5.7650    -0.8840     4.7230 hc         1 XS6       0.041700
     27 H13          7.9890     0.8850     3.6430 hc         1 XS6       0.064700
     28 H14          7.9890    -0.8840     3.6430 hc         1 XS6       0.064700
     29 H15          7.8420     0.8860     6.1110 hc         1 XS6       0.060200
     30 H16          7.8410    -0.8830     6.1110 hc         1 XS6       0.060200
     31 H17         -1.4890     0.0450    -1.3860 hn         1 XS6       0.458133
     32 H18         -0.1180     0.7920    -1.8710 hn         1 XS6       0.458133
     33 H20          3.8430    -0.8100     0.9580 hn         1 XS6       0.358800
     34 H22          9.9230    -0.0160     7.5800 hn         1 XS6       0.318500
     35 H23         12.1540     0.0300     7.5430 ho         1 XS6       0.402000
     36 H131        -0.1940    -0.8410    -1.8430 hn         1 XS6       0.458133
@<TRIPOS>BOND
     1    14    12 1
     2    13     9 2
     3    12     9 1
     4    10     1 1
     5     9     8 1
     6     2     1 1
     7     2     3 1
     8     7     8 1
     9     7     6 1
    10     3    11 1
    11    11     4 1
    12     5     6 1
    13     5     4 1
    14     1    15 1
    15     1    16 1
    16     2    17 1
    17     2    18 1
    18     3    19 1
    19     3    20 1
    20     4    21 1
    21     4    22 1
    22     5    23 1
    23     5    24 1
    24     6    25 1
    25     6    26 1
    26     7    27 1
    27     7    28 1
    28     8    29 1
    29     8    30 1
    30    10    31 1
    31    10    32 1
    32    11    33 1
    33    12    34 1
    34    14    35 1
    35    36    10 1
@<TRIPOS>SUBSTRUCTURE
     1 XS6         1 TEMP              0 ****  ****    0 ROOT
