@<TRIPOS>MOLECULE
molecule
   13    12     1     0     0
SMALL
bcc


@<TRIPOS>ATOM
      1 C1           0.0000     0.0000     0.0000 c          1 XSP       0.898600
      2 C2           1.5080     0.0000     0.0000 c3         1 XSP       0.031100
      3 C3           2.0100     1.2310    -0.7100 c          1 XSP       0.579900
      4 O1          -0.6040     0.0970     1.0420 o          1 XSP      -0.882800
      5 O2          -0.6710    -0.1000    -1.1580 o          1 XSP      -0.882800
      6 O3           2.7040     2.0240    -0.1230 o          1 XSP      -0.584100
      7 O1P          1.9830     0.0000     1.3470 os         1 XSP      -0.549200
      8 O2P          2.2440    -2.4770     1.7580 o          1 XSP      -0.938167
      9 O3P          4.3300    -1.1760     1.1860 o          1 XSP      -0.938167
     10 O4P          3.1480    -0.9140     3.5210 o          1 XSP      -0.938167
     11 H1           1.8690    -0.8840    -0.5110 h1         1 XSP       0.055700
     12 H2           1.7830     1.3810    -1.7590 h4         1 XSP      -0.079800
     13 P            2.9120    -1.1700     1.9490 p5         1 XSP       1.227900
@<TRIPOS>BOND
     1     8    13 1
     2    10    13 1
     3    13     7 1
     4    13     9 1
     5     7     2 1
     6     3     2 1
     7     3     6 2
     8     2     1 1
     9     4     1 1
    10     1     5 1
    11     2    11 1
    12     3    12 1
@<TRIPOS>SUBSTRUCTURE
     1 XSP         1 TEMP              0 ****  ****    0 ROOT
