@<TRIPOS>MOLECULE
XSP
   13    11     1     0     0
SMALL
bcc


@<TRIPOS>ATOM
      1 C1         -0.0630    0.0590   -0.2790 c2        1 XSP      0.334000
      2 C2          1.4590    0.2650   -0.2040 c3        1 XSP     -0.082000
      3 C3          1.8320    1.7320   -0.4960 c1        1 XSP     -0.192000
      4 O1         -0.8170    0.3440    0.7050 o         1 XSP     -0.646000
      5 O2         -0.5700   -0.3960   -1.3600 o         1 XSP     -0.646000
      6 O3          2.2300    2.4410    0.4510 o         1 XSP     -0.538000
      7 O1P         1.9900   -0.2920    1.0370 oh        1 XSP     -0.483000
      8 O2P         2.6660   -2.9760    1.9220 o         1 XSP     -1.186333
      9 O3P         4.5980   -1.5160    1.2370 o         1 XSP     -1.186333
     10 O4P         3.1580   -0.8560    3.2380 o         1 XSP     -1.186333
     11 H1          1.8090    0.3660    1.7200 ho        1 XSP      0.243000
     12 H2          1.9490   -0.3690   -0.9920 h1        1 XSP      0.064000
     13 P           3.3260   -1.6480    1.9940 p3        1 XSP      2.504000
@<TRIPOS>BOND
     1    1    2 1   
     2    1    4 1   
     3    1    5 1   
     4    2    3 1   
     5    2    7 1   
     6    2   12 1   
     7    3    6 1   
     8    7   11 1   
     9    8   13 1   
    10    9   13 1   
    11   10   13 1   
@<TRIPOS>SUBSTRUCTURE
     1 XSP         1 TEMP              0 ****  ****    0 ROOT
