@<TRIPOS>MOLECULE
XT0
   47    50     1     0     0
SMALL
bcc


@<TRIPOS>ATOM
      1 NAA         -1.2840     0.0180    -2.2240 n1         1 XT0      -0.389800
      2 CAC         -0.7200     0.0000    -1.2380 cg         1 XT0       0.245800
      3 CAV          0.0000     0.0000     0.0000 ca         1 XT0      -0.011000
      4 CAF          1.3970     0.0000     0.0000 ca         1 XT0      -0.036000
      5 CAD          2.0840     0.0000     1.1950 ca         1 XT0      -0.143000
      6 CAE          1.3950     0.0010     2.3970 ca         1 XT0      -0.034000
      7 CAG          0.0140     0.0020     2.4110 ca         1 XT0      -0.196000
      8 CAY         -0.6930     0.0070     1.2190 ca         1 XT0       0.178100
      9 OAS         -2.0500     0.0140     1.2310 os         1 XT0      -0.205200
     10 CAX         -2.6770     0.1260     2.4330 ca         1 XT0       0.086100
     11 CAT         -2.9180     1.3820     2.9800 ca         1 XT0       0.118100
     12 CAJ         -3.5580     1.4900     4.2040 ca         1 XT0      -0.132000
     13 OAB         -2.5260     2.5020     2.3140 oh         1 XT0      -0.482100
     14 CAI         -3.0820    -1.0120     3.1130 ca         1 XT0      -0.091000
     15 CAH         -3.7200    -0.8960     4.3340 ca         1 XT0      -0.066000
     16 CAU         -3.9540     0.3510     4.8790 ca         1 XT0      -0.112300
     17 CAP         -4.6500     0.4710     6.2110 c3         1 XT0       0.035600
     18 NBA         -3.6540     0.4590     7.2860 na         1 XT0       0.590400
     19 CAK         -3.5110     1.4010     8.2450 cc         1 XT0      -0.456600
     20 NAR         -2.7670    -0.4540     7.4810 nc         1 XT0      -0.375800
     21 NAQ         -2.0500    -0.1620     8.5080 nd         1 XT0      -0.310000
     22 CAW         -2.4790     0.9950     9.0220 cd         1 XT0       0.281600
     23 CAZ         -1.9240     1.7080    10.2280 c3         1 XT0      -0.049000
     24 CAN         -2.7280     1.3390    11.4920 c3         1 XT0      -0.026400
     25 CAL         -2.8290     2.6210    12.3380 c3         1 XT0      -0.024900
     26 CAM         -2.0800     3.7230    11.5610 c3         1 XT0      -0.024900
     27 CAO         -2.1150     3.2390    10.0890 c3         1 XT0      -0.026400
     28 H1           1.9390    -0.0010    -0.9380 ha         1 XT0       0.113000
     29 H2           3.1670    -0.0000     1.1950 ha         1 XT0       0.111000
     30 H3           1.9430    -0.0010     3.3320 ha         1 XT0       0.107000
     31 H4          -0.5170     0.0050     3.3550 ha         1 XT0       0.132000
     32 H5          -3.7450     2.4670     4.6340 ha         1 XT0       0.118000
     33 H6          -3.2850     3.0020     2.0660 ho         1 XT0       0.409000
     34 H7          -2.9000    -1.9920     2.6880 ha         1 XT0       0.125000
     35 H8          -4.0350    -1.7860     4.8660 ha         1 XT0       0.121000
     36 H9          -5.2060     1.4000     6.2450 h1         1 XT0       0.041700
     37 H10         -5.3300    -0.3620     6.3390 h1         1 XT0       0.041700
     38 H11         -4.1010     2.3020     8.3660 h4         1 XT0       0.166000
     39 H12         -0.8760     1.4710    10.3670 hc         1 XT0       0.044700
     40 H13         -3.7200     1.0010    11.2140 hc         1 XT0       0.018200
     41 H14         -2.2100     0.5680    12.0480 hc         1 XT0       0.018200
     42 H15         -3.8680     2.8990    12.4660 hc         1 XT0       0.013700
     43 H16         -2.3590     2.4650    13.3020 hc         1 XT0       0.013700
     44 H17         -1.0570     3.8020    11.9080 hc         1 XT0       0.013700
     45 H18         -2.5960     4.6710    11.6590 hc         1 XT0       0.013700
     46 H19         -1.3010     3.6760     9.5230 hc         1 XT0       0.018200
     47 H20         -3.0720     3.4650     9.6350 hc         1 XT0       0.018200
@<TRIPOS>BOND
     1     1     2 3   
     2     2     3 1   
     3     3     4 ar  
     4     3     8 ar  
     5     4     5 ar  
     6     4    28 1   
     7     5     6 ar  
     8     5    29 1   
     9     6     7 ar  
    10     6    30 1   
    11     7     8 ar  
    12     7    31 1   
    13     8     9 1   
    14     9    10 1   
    15    10    11 ar  
    16    10    14 ar  
    17    11    12 ar  
    18    11    13 1   
    19    12    16 ar  
    20    12    32 1   
    21    13    33 1   
    22    14    15 ar  
    23    14    34 1   
    24    15    16 ar  
    25    15    35 1   
    26    16    17 1   
    27    17    18 1   
    28    17    36 1   
    29    17    37 1   
    30    18    19 1   
    31    18    20 1   
    32    19    22 2   
    33    19    38 1   
    34    20    21 2   
    35    21    22 1   
    36    22    23 1   
    37    23    24 1   
    38    23    27 1   
    39    23    39 1   
    40    24    25 1   
    41    24    40 1   
    42    24    41 1   
    43    25    26 1   
    44    25    42 1   
    45    25    43 1   
    46    26    27 1   
    47    26    44 1   
    48    26    45 1   
    49    27    46 1   
    50    27    47 1   
@<TRIPOS>SUBSTRUCTURE
     1 XT0         1 TEMP              0 ****  ****    0 ROOT
