@<TRIPOS>MOLECULE
XT3
   50    53     1     0     0
SMALL
bcc


@<TRIPOS>ATOM
      1 NAA         -1.2790    -0.0150    -2.2270 n1         1 XT3      -0.384800
      2 CAC         -0.7200    -0.0010    -1.2380 cg         1 XT3       0.242800
      3 CAW          0.0000     0.0000     0.0000 ca         1 XT3      -0.009000
      4 CAF          1.3980     0.0000     0.0000 ca         1 XT3      -0.034000
      5 CAD          2.0840     0.0000     1.1950 ca         1 XT3      -0.143000
      6 CAE          1.3960    -0.0020     2.3960 ca         1 XT3      -0.037000
      7 CAG          0.0150    -0.0020     2.4110 ca         1 XT3      -0.199000
      8 CAZ         -0.6930     0.0050     1.2190 ca         1 XT3       0.181100
      9 OAT         -2.0500     0.0100     1.2310 os         1 XT3      -0.201200
     10 CAY         -2.6760     0.1200     2.4330 ca         1 XT3       0.084100
     11 CAU         -2.9180     1.3760     2.9810 ca         1 XT3       0.123100
     12 CAJ         -3.5580     1.4820     4.2060 ca         1 XT3      -0.108000
     13 OAB         -2.5270     2.4960     2.3170 oh         1 XT3      -0.486100
     14 CAI         -3.0810    -1.0190     3.1120 ca         1 XT3      -0.093000
     15 CAH         -3.7190    -0.9060     4.3320 ca         1 XT3      -0.092000
     16 CAV         -3.9540     0.3420     4.8800 ca         1 XT3      -0.111300
     17 CAQ         -4.6490     0.4600     6.2120 c3         1 XT3       0.035600
     18 NBB         -6.0960     0.5430     6.0020 na         1 XT3       0.589400
     19 CAK         -7.0270    -0.2650     6.5620 cc         1 XT3      -0.456600
     20 NAS         -6.7020     1.4000     5.2570 nc         1 XT3      -0.376800
     21 NAR         -7.9730     1.1990     5.2920 nd         1 XT3      -0.310000
     22 CAX         -8.2250     0.1670     6.1040 cd         1 XT3       0.280600
     23 CBA         -9.5770    -0.4090     6.4370 c3         1 XT3      -0.050000
     24 CAO         -9.5820    -0.8930     7.8890 c3         1 XT3      -0.024900
     25 CAM        -10.9550    -1.4770     8.2270 c3         1 XT3      -0.022900
     26 CAL        -11.2520    -2.6540     7.2960 c3         1 XT3      -0.026400
     27 CAN        -11.2480    -2.1700     5.8440 c3         1 XT3      -0.022900
     28 CAP         -9.8750    -1.5860     5.5060 c3         1 XT3      -0.024900
     29 H1           1.9400     0.0010    -0.9380 ha         1 XT3       0.114000
     30 H2           3.1680    -0.0000     1.1940 ha         1 XT3       0.111000
     31 H3           1.9440    -0.0040     3.3310 ha         1 XT3       0.103000
     32 H4          -0.5160    -0.0000     3.3560 ha         1 XT3       0.127000
     33 H5          -3.7460     2.4580     4.6360 ha         1 XT3       0.128000
     34 H6          -3.2870     3.0010     2.0780 ho         1 XT3       0.417000
     35 H7          -2.8980    -1.9970     2.6850 ha         1 XT3       0.123000
     36 H8          -4.0330    -1.7970     4.8620 ha         1 XT3       0.110000
     37 H9          -4.3060     1.3530     6.7200 h1         1 XT3       0.041700
     38 H10         -4.4210    -0.4100     6.8160 h1         1 XT3       0.041700
     39 H11         -6.8490    -1.0870     7.2450 h4         1 XT3       0.164000
     40 H12        -10.3390     0.3510     6.3100 hc         1 XT3       0.045700
     41 H13         -9.3740    -0.0590     8.5470 hc         1 XT3       0.016700
     42 H14         -8.8240    -1.6580     8.0150 hc         1 XT3       0.016700
     43 H15        -11.7120    -0.7140     8.0960 hc         1 XT3       0.014700
     44 H16        -10.9560    -1.8220     9.2540 hc         1 XT3       0.014700
     45 H17        -12.2260    -3.0650     7.5350 hc         1 XT3       0.012700
     46 H18        -10.4920    -3.4150     7.4240 hc         1 XT3       0.012700
     47 H19        -11.4560    -3.0050     5.1860 hc         1 XT3       0.014700
     48 H20        -12.0050    -1.4060     5.7170 hc         1 XT3       0.014700
     49 H21         -9.1180    -2.3490     5.6360 hc         1 XT3       0.016700
     50 H22         -9.8740    -1.2410     4.4790 hc         1 XT3       0.016700
@<TRIPOS>BOND
     1     1     2 3   
     2     2     3 1   
     3     3     4 ar  
     4     3     8 ar  
     5     4     5 ar  
     6     4    29 1   
     7     5     6 ar  
     8     5    30 1   
     9     6     7 ar  
    10     6    31 1   
    11     7     8 ar  
    12     7    32 1   
    13     8     9 1   
    14     9    10 1   
    15    10    11 ar  
    16    10    14 ar  
    17    11    12 ar  
    18    11    13 1   
    19    12    16 ar  
    20    12    33 1   
    21    13    34 1   
    22    14    15 ar  
    23    14    35 1   
    24    15    16 ar  
    25    15    36 1   
    26    16    17 1   
    27    17    18 1   
    28    17    37 1   
    29    17    38 1   
    30    18    19 1   
    31    18    20 1   
    32    19    22 2   
    33    19    39 1   
    34    20    21 2   
    35    21    22 1   
    36    22    23 1   
    37    23    24 1   
    38    23    28 1   
    39    23    40 1   
    40    24    25 1   
    41    24    41 1   
    42    24    42 1   
    43    25    26 1   
    44    25    43 1   
    45    25    44 1   
    46    26    27 1   
    47    26    45 1   
    48    26    46 1   
    49    27    28 1   
    50    27    47 1   
    51    27    48 1   
    52    28    49 1   
    53    28    50 1   
@<TRIPOS>SUBSTRUCTURE
     1 XT3         1 TEMP              0 ****  ****    0 ROOT
