@<TRIPOS>MOLECULE
molecule
   43    46     1     0     0
SMALL
bcc


@<TRIPOS>ATOM
      1 CAK          0.0000     0.0000     0.0000 cx         1 XT5      -0.132400
      2 CAL          1.5300     0.0000     0.0000 cx         1 XT5      -0.132400
      3 CAW          0.7650     0.0000     1.3250 cx         1 XT5      -0.144000
      4 CAT          0.7640    -1.2750     2.1290 cc         1 XT5       0.314600
      5 CAJ          1.6040    -2.3270     1.9790 cd         1 XT5      -0.291600
      6 NAN         -0.0620    -1.5880     3.1340 nc         1 XT5      -0.354000
      7 NAO          0.2430    -2.7570     3.5740 nd         1 XT5      -0.199800
      8 NAX          1.2360    -3.2380     2.9100 na         1 XT5       0.125400
      9 CAM          1.8630    -4.5430     3.1270 c3         1 XT5       0.111600
     10 CAR          2.2900    -4.6630     4.5680 ca         1 XT5      -0.107300
     11 CAI          3.5510    -4.2460     4.9500 ca         1 XT5      -0.151000
     12 CAS          3.9440    -4.3490     6.2750 ca         1 XT5       0.097100
     13 OAB          5.1840    -3.9380     6.6520 oh         1 XT5      -0.498100
     14 CAG          1.4170    -5.1830     5.5050 ca         1 XT5      -0.096000
     15 CAH          1.8040    -5.2940     6.8270 ca         1 XT5      -0.121000
     16 CAV          3.0650    -4.8730     7.2180 ca         1 XT5       0.104100
     17 OAP          3.4450    -4.9760     8.5200 os         1 XT5      -0.244200
     18 CAU          3.3650    -3.8650     9.2980 ca         1 XT5       0.138100
     19 CAF          2.7970    -2.7040     8.7940 ca         1 XT5      -0.194000
     20 CAD          2.7160    -1.5760     9.5880 ca         1 XT5      -0.096000
     21 CAC          3.2000    -1.6040    10.8830 ca         1 XT5      -0.158000
     22 CAE          3.7670    -2.7600    11.3880 ca         1 XT5      -0.099000
     23 CAQ          3.8450    -3.8920    10.6000 ca         1 XT5      -0.104300
     24 CAA          4.4610    -5.1530    11.1500 c3         1 XT5      -0.037800
     25 H1          -0.4670    -0.9390    -0.2700 hc         1 XT5       0.075950
     26 H2          -0.4670     0.9390    -0.2700 hc         1 XT5       0.075950
     27 H3           1.9970    -0.9390    -0.2700 hc         1 XT5       0.075950
     28 H4           1.9970     0.9390    -0.2700 hc         1 XT5       0.075950
     29 H5           0.7640     0.9480     1.8490 hc         1 XT5       0.098700
     30 H6           2.4060    -2.4220     1.2570 h4         1 XT5       0.180000
     31 H7           2.7290    -4.6390     2.4840 h1         1 XT5       0.073200
     32 H8           1.1530    -5.3280     2.8950 h1         1 XT5       0.073200
     33 H9           4.2440    -3.8680     4.2080 ha         1 XT5       0.141000
     34 H10          5.8350    -4.4440     6.1960 ho         1 XT5       0.422000
     35 H11          0.4300    -5.5130     5.2010 ha         1 XT5       0.148000
     36 H12          1.1180    -5.7020     7.5600 ha         1 XT5       0.156000
     37 H13          2.4180    -2.6820     7.7800 ha         1 XT5       0.144000
     38 H14          2.2730    -0.6690     9.1960 ha         1 XT5       0.133000
     39 H15          3.1380    -0.7180    11.5030 ha         1 XT5       0.130000
     40 H16          4.1430    -2.7800    12.4030 ha         1 XT5       0.134000
     41 H17          5.3610    -5.3870    10.5940 hc         1 XT5       0.043700
     42 H18          3.7560    -5.9700    11.0570 hc         1 XT5       0.043700
     43 H19          4.7100    -5.0070    12.1940 hc         1 XT5       0.043700
@<TRIPOS>BOND
     1    21    20 ar
     2    21    22 ar
     3    20    19 ar
     4    22    23 ar
     5     1     2 1
     6     1     3 1
     7    19    18 ar
     8     2     3 1
     9     3     4 1
    10    23    18 ar
    11    23    24 1
    12    18    17 1
    13     4     5 2
    14     4     6 1
    15     5     8 1
    16    13    12 1
    17    17    16 1
    18     6     7 2
    19    12    16 ar
    20    12    11 ar
    21    16    15 ar
    22    11    10 ar
    23    15    14 ar
    24     8     7 1
    25     8     9 1
    26    10    14 ar
    27    10     9 1
    28     1    25 1
    29     1    26 1
    30     2    27 1
    31     2    28 1
    32     3    29 1
    33     5    30 1
    34     9    31 1
    35     9    32 1
    36    11    33 1
    37    13    34 1
    38    14    35 1
    39    15    36 1
    40    19    37 1
    41    20    38 1
    42    21    39 1
    43    22    40 1
    44    24    41 1
    45    24    42 1
    46    24    43 1
@<TRIPOS>SUBSTRUCTURE
     1 XT5         1 TEMP              0 ****  ****    0 ROOT
