@<TRIPOS>MOLECULE
molecule
   55    58     1     0     0
SMALL
bcc


@<TRIPOS>ATOM
      1 O92          0.0000     0.0000     0.0000 o          1 XTC      -0.185500
      2 N9           1.2180     0.0000     0.0000 no         1 XTC       0.296200
      3 O91          1.8270     0.0000     1.0540 o          1 XTC      -0.185500
      4 C9           1.9580    -0.0080    -1.2820 ca         1 XTC      -0.200200
      5 C8           1.2670    -0.0150    -2.4780 ca         1 XTC      -0.025000
      6 C7           1.9490    -0.0150    -3.6840 ca         1 XTC      -0.158000
      7 C10          3.3450    -0.0030    -1.2820 ca         1 XTC       0.234100
      8 O10          4.0270     0.0090    -0.1090 oh         1 XTC      -0.471100
      9 C1A          4.0370    -0.0100    -2.4990 ca         1 XTC      -0.206600
     10 C61          3.3280    -0.0080    -3.7010 ca         1 XTC      -0.005300
     11 C6           4.0660     0.0300    -5.0140 c3         1 XTC      -0.034100
     12 C11          5.5130    -0.0030    -2.5230 c          1 XTC       0.579900
     13 O11          6.1480     0.2410    -1.5130 o          1 XTC      -0.463100
     14 C1B          6.1830    -0.2890    -3.7490 ce         1 XTC      -0.215400
     15 C51          5.3580    -0.7780    -4.9160 c3         1 XTC      -0.015500
     16 C5           6.1510    -0.6380    -6.2190 c3         1 XTC      -0.082400
     17 C12          7.5050    -0.1090    -3.8150 c2         1 XTC       0.116900
     18 O12          8.1360     0.3480    -2.7140 oh         1 XTC      -0.481100
     19 C1C          8.3340    -0.3860    -5.0400 c3         1 XTC       0.116000
     20 O1C          9.5620    -1.0250    -4.6790 oh         1 XTC      -0.539800
     21 C1           8.6070     0.9420    -5.7200 c          1 XTC       0.567300
     22 O1           8.5520     1.9810    -5.0950 o          1 XTC      -0.475100
     23 C41          7.5230    -1.2710    -6.0070 c3         1 XTC      -0.060700
     24 C4           8.2580    -1.4850    -7.3160 c3         1 XTC       0.185700
     25 N4           9.3970    -2.3830    -7.0810 n3         1 XTC      -0.695600
     26 C43          8.9410    -3.7210    -6.6840 c3         1 XTC       0.143100
     27 C42         10.2650    -2.4530    -8.2650 c3         1 XTC       0.143100
     28 C3           8.7630    -0.2010    -7.9010 c2         1 XTC       0.258900
     29 O3           9.0490    -0.1540    -9.2110 oh         1 XTC      -0.524100
     30 C2           8.9390     0.9470    -7.1450 ce         1 XTC      -0.377400
     31 C21          9.4600     2.1720    -7.7710 c          1 XTC       0.530300
     32 O21         10.6300     2.4740    -7.6330 o          1 XTC      -0.367100
     33 N21          8.6410     2.9610    -8.4950 nz         1 XTC      -0.680400
     34 H8           0.1840    -0.0200    -2.4730 ha         1 XTC       0.178000
     35 H7           1.3980    -0.0200    -4.6160 ha         1 XTC       0.151000
     36 H10          4.1700    -0.8770     0.1800 ho         1 XTC       0.448000
     37 H61C         3.4370    -0.4130    -5.7780 hc         1 XTC       0.064700
     38 H62C         4.3160     1.0590    -5.2410 hc         1 XTC       0.064700
     39 H51          5.1120    -1.8210    -4.7630 hc         1 XTC       0.082700
     40 H51C         5.6320    -1.1520    -7.0190 hc         1 XTC       0.044200
     41 H52C         6.2670     0.4100    -6.4650 hc         1 XTC       0.044200
     42 H41          7.3800    -2.2380    -5.5390 hc         1 XTC       0.109700
     43 H12          8.5260    -0.3750    -2.2520 ho         1 XTC       0.446000
     44 H1C         10.1000    -0.4210    -4.1940 ho         1 XTC       0.425000
     45 H4           7.5810    -1.9480    -8.0240 h1         1 XTC       0.054700
     46 H431         7.9780    -3.9240    -7.1370 h1         1 XTC       0.047867
     47 H432         8.8500    -3.7660    -5.6050 h1         1 XTC       0.047867
     48 H433         9.6590    -4.4610    -7.0170 h1         1 XTC       0.047867
     49 H421        10.8240    -1.5290    -8.3580 h1         1 XTC       0.047867
     50 H422         9.6570    -2.5970    -9.1500 h1         1 XTC       0.047867
     51 H423        10.9530    -3.2830    -8.1610 h1         1 XTC       0.047867
     52 H3           8.2490    -0.0840    -9.7050 ho         1 XTC       0.449000
     53 H211         8.6500     3.8870    -8.1170 hn         1 XTC       0.477133
     54 H212         7.7100     2.5950    -8.4620 hn         1 XTC       0.477133
     55 H213         8.9560     2.9850    -9.4450 hn         1 XTC       0.477133
@<TRIPOS>BOND
     1     1     2 1
     2     2     3 1
     3     2     4 1
     4     4     5 ar
     5     4     7 ar
     6     5     6 ar
     7     6    10 ar
     8     7     8 1
     9     7     9 ar
    10     9    10 ar
    11     9    12 1
    12    10    11 1
    13    11    15 1
    14    12    13 2
    15    12    14 1
    16    14    15 1
    17    14    17 2
    18    15    16 1
    19    16    23 1
    20    17    18 1
    21    17    19 1
    22    19    20 1
    23    19    21 1
    24    19    23 1
    25    21    22 2
    26    21    30 1
    27    23    24 1
    28    24    25 1
    29    24    28 1
    30    25    26 1
    31    25    27 1
    32    28    29 1
    33    28    30 2
    34    30    31 1
    35    31    32 2
    36    31    33 1
    37     5    34 1
    38     6    35 1
    39     8    36 1
    40    11    37 1
    41    11    38 1
    42    15    39 1
    43    16    40 1
    44    16    41 1
    45    23    42 1
    46    18    43 1
    47    20    44 1
    48    24    45 1
    49    26    46 1
    50    26    47 1
    51    26    48 1
    52    27    49 1
    53    27    50 1
    54    27    51 1
    55    29    52 1
    56    33    53 1
    57    33    54 1
    58    55    33 1
@<TRIPOS>SUBSTRUCTURE
     1 XTC         1 TEMP              0 ****  ****    0 ROOT
