@<TRIPOS>MOLECULE
molecule
   53    55     1     0     0
SMALL
bcc


@<TRIPOS>ATOM
      1 C14          0.0000     0.0000     0.0000 ca         1 XTG      -0.183500
      2 C13          1.3810     0.0000     0.0000 ca         1 XTG      -0.032500
      3 C12          2.0740     0.0000     1.1970 ca         1 XTG      -0.191200
      4 N1           3.5540    -0.0010     1.1950 no         1 XTG       0.301200
      5 O10          4.1610    -0.0020     0.1390 o          1 XTG      -0.215000
      6 O11          4.1640    -0.0010     2.2490 o          1 XTG      -0.215000
      7 C17          1.3860     0.0010     2.3970 ca         1 XTG      -0.032500
      8 C16          0.0040     0.0070     2.4010 ca         1 XTG      -0.183500
      9 C15         -0.6920     0.0000     1.2010 ca         1 XTG       0.163100
     10 O1          -2.0520     0.0010     1.2040 os         1 XTG      -0.268900
     11 C1          -2.4620     0.0010     2.5720 c3         1 XTG       0.298900
     12 O5          -2.0550    -1.2170     3.1900 os         1 XTG      -0.397600
     13 C2          -3.9850     0.1360     2.6450 c3         1 XTG       0.115100
     14 O2          -4.3900     1.3450     2.0000 oh         1 XTG      -0.591800
     15 C3          -4.4140     0.1680     4.1160 c3         1 XTG       0.119100
     16 O3          -5.8410     0.1440     4.2010 oh         1 XTG      -0.598800
     17 C4          -3.8330    -1.0610     4.8230 c3         1 XTG       0.108100
     18 O4          -4.0960    -0.9760     6.2250 oh         1 XTG      -0.598800
     19 C5          -2.3210    -1.1040     4.5860 c3         1 XTG       0.147100
     20 C6          -1.7260    -2.3090     5.3170 c3         1 XTG       0.012700
     21 S6           0.0810    -2.2760     5.1660 ss         1 XTG      -0.291200
     22 C7           0.5030    -3.7740     6.0980 c3         1 XTG       0.226200
     23 O9           0.0890    -4.9230     5.3610 os         1 XTG      -0.364600
     24 C11          0.2730    -6.0630     6.2000 c3         1 XTG       0.109400
     25 C10          1.7670    -6.2960     6.4350 c3         1 XTG       0.112100
     26 O8           2.4250    -6.4890     5.1810 oh         1 XTG      -0.559800
     27 C9           2.3600    -5.0730     7.1430 c3         1 XTG       0.120100
     28 O7           1.8050    -4.9570     8.4550 oh         1 XTG      -0.608800
     29 C8           2.0150    -3.8210     6.3260 c3         1 XTG       0.131100
     30 O6           2.6870    -3.8710     5.0660 oh         1 XTG      -0.552800
     31 H14         -0.5420    -0.0020    -0.9380 ha         1 XTG       0.160000
     32 H13          1.9230    -0.0000    -0.9380 ha         1 XTG       0.167000
     33 H17          1.9300     0.0030     3.3330 ha         1 XTG       0.167000
     34 H16         -0.5350     0.0070     3.3410 ha         1 XTG       0.160000
     35 H1          -2.0040     0.8360     3.0900 h2         1 XTG       0.061700
     36 H2          -4.4460    -0.7130     2.1540 h1         1 XTG       0.072700
     37 HO2         -4.9660     1.1400     1.2820 ho         1 XTG       0.420000
     38 H3          -4.0330     1.0680     4.5840 h1         1 XTG       0.062700
     39 HO3         -6.1440     0.9300     4.6250 ho         1 XTG       0.418000
     40 H4          -4.2870    -1.9580     4.4180 h1         1 XTG       0.065700
     41 HO4         -4.7950    -1.5670     6.4500 ho         1 XTG       0.418000
     42 H5          -1.8740    -0.1920     4.9630 h1         1 XTG       0.059700
     43 H61         -2.0020    -2.2680     6.3640 h1         1 XTG       0.083200
     44 H62         -2.1090    -3.2230     4.8790 h1         1 XTG       0.083200
     45 H7          -0.0040    -3.7610     7.0560 h2         1 XTG       0.066700
     46 H111        -0.2170    -5.8920     7.1500 h1         1 XTG       0.056200
     47 H112        -0.1540    -6.9350     5.7190 h1         1 XTG       0.056200
     48 H10          1.9010    -7.1720     7.0580 h1         1 XTG       0.036700
     49 HO8          2.7010    -7.3880     5.1060 ho         1 XTG       0.394000
     50 H9           3.4370    -5.1780     7.2070 h1         1 XTG       0.053700
     51 HO7          2.4990    -4.9770     9.0930 ho         1 XTG       0.410000
     52 H8           2.3250    -2.9380     6.8720 h1         1 XTG       0.048700
     53 HO6          3.3370    -3.1880     5.0290 ho         1 XTG       0.401000
@<TRIPOS>BOND
     1     1     2 ar
     2     1     9 ar
     3     1    31 1
     4     2     3 ar
     5     2    32 1
     6     3     4 1
     7     3     7 ar
     8     4     5 1
     9     4     6 1
    10     7     8 ar
    11     7    33 1
    12     8     9 ar
    13     8    34 1
    14     9    10 1
    15    10    11 1
    16    11    12 1
    17    11    13 1
    18    11    35 1
    19    12    19 1
    20    13    14 1
    21    13    15 1
    22    13    36 1
    23    14    37 1
    24    15    16 1
    25    15    17 1
    26    15    38 1
    27    16    39 1
    28    17    18 1
    29    17    19 1
    30    17    40 1
    31    18    41 1
    32    19    20 1
    33    19    42 1
    34    20    21 1
    35    20    43 1
    36    20    44 1
    37    21    22 1
    38    22    23 1
    39    22    29 1
    40    22    45 1
    41    23    24 1
    42    24    25 1
    43    24    46 1
    44    24    47 1
    45    25    26 1
    46    25    27 1
    47    25    48 1
    48    26    49 1
    49    27    28 1
    50    27    29 1
    51    27    50 1
    52    28    51 1
    53    29    30 1
    54    29    52 1
    55    30    53 1
@<TRIPOS>SUBSTRUCTURE
     1 XTG         1 TEMP              0 ****  ****    0 ROOT
