@<TRIPOS>MOLECULE
XTK
   45    46     1     0     0
SMALL
bcc


@<TRIPOS>ATOM
      1 N3          -1.5030     0.0140    -2.0820 n1         1 XTK      -0.376800
      2 C16         -0.8310     0.0010    -1.1670 cg         1 XTK       0.219500
      3 C1           0.0000     0.0000     0.0000 cc         1 XTK      -0.131800
      4 N1           1.3820     0.0000     0.0000 na         1 XTK       0.383600
      5 C8           1.8250     0.0000     1.3030 ca         1 XTK      -0.179200
      6 C7           3.0930    -0.0010     1.8760 ca         1 XTK      -0.143300
      7 C6           3.2320    -0.0010     3.2470 ca         1 XTK      -0.025000
      8 C5           2.1160    -0.0010     4.0710 ca         1 XTK      -0.253000
      9 C2          -0.4450     0.0060     1.2850 cd         1 XTK      -0.077200
     10 C3           0.6880     0.0010     2.1330 ca         1 XTK      -0.140800
     11 C4           0.8460     0.0000     3.5290 ca         1 XTK       0.219100
     12 O1          -0.2430    -0.0010     4.3410 os         1 XTK      -0.298900
     13 C9          -0.0020    -0.0020     5.7500 c3         1 XTK       0.177400
     14 C10         -1.3380    -0.0030     6.4950 c3         1 XTK       0.188100
     15 O2          -2.0320    -1.2240     6.2290 oh         1 XTK      -0.565800
     16 C11         -1.0840     0.1210     7.9980 c3         1 XTK       0.112800
     17 N2          -2.3670     0.1200     8.7140 n7         1 XTK      -0.563200
     18 C12         -2.1610     0.2390    10.1630 c3         1 XTK       0.097200
     19 C15         -1.4290     1.5470    10.4700 c3         1 XTK      -0.008433
     20 C14         -3.5170     0.2340    10.8730 c3         1 XTK      -0.008433
     21 C13         -1.3230    -0.9420    10.6580 c3         1 XTK      -0.008433
     22 C17          4.3160    -0.0020     0.9960 c3         1 XTK       0.072200
     23 H1           1.9640     0.0000    -0.8140 hn         1 XTK       0.123700
     24 H2          -1.4770     0.1030     1.6010 ha         1 XTK       0.138000
     25 H6           4.2230    -0.0010     3.6850 ha         1 XTK       0.104000
     26 H171         4.3130    -0.8890     0.3750 hc         1 XTK       0.004367
     27 H172         5.2060     0.0040     1.6140 hc         1 XTK       0.004367
     28 H173         4.3080     0.8800     0.3660 hc         1 XTK       0.004367
     29 H5           2.2420    -0.0000     5.1470 ha         1 XTK       0.123000
     30 H91C         0.5620     0.8820     6.0200 h1         1 XTK       0.013200
     31 H92C         0.5620    -0.8870     6.0190 h1         1 XTK       0.013200
     32 H10         -1.9390     0.8340     6.1600 h1         1 XTK       0.003700
     33 HA          -2.7910    -1.0450     5.6990 ho         1 XTK       0.393000
     34 H111        -0.5590     1.0470     8.2000 h1         1 XTK       0.022700
     35 H112        -0.4830    -0.7160     8.3330 h1         1 XTK       0.022700
     36 HB          -2.9290     0.8840     8.3930 hn         1 XTK       0.251800
     37 H151        -1.8420     2.3430     9.8620 hc         1 XTK       0.010144
     38 H152        -0.3750     1.4320    10.2480 hc         1 XTK       0.010144
     39 H153        -1.5520     1.7930    11.5180 hc         1 XTK       0.010144
     40 H141        -3.3640     0.2880    11.9440 hc         1 XTK       0.010144
     41 H142        -4.0980     1.0890    10.5480 hc         1 XTK       0.010144
     42 H143        -4.0480    -0.6780    10.6290 hc         1 XTK       0.010144
     43 H131        -0.2770    -0.7600    10.4380 hc         1 XTK       0.010144
     44 H132        -1.6440    -1.8480    10.1580 hc         1 XTK       0.010144
     45 H133        -1.4520    -1.0550    11.7270 hc         1 XTK       0.010144
@<TRIPOS>BOND
     1     1     2 3   
     2     2     3 1   
     3     3     4 1   
     4     3     9 2   
     5     4     5 1   
     6     4    23 1   
     7     5     6 ar  
     8     5    10 ar  
     9     6     7 ar  
    10     6    22 1   
    11     7     8 ar  
    12     7    25 1   
    13     8    11 ar  
    14     8    29 1   
    15     9    10 1   
    16     9    24 1   
    17    10    11 ar  
    18    11    12 1   
    19    12    13 1   
    20    13    14 1   
    21    13    30 1   
    22    13    31 1   
    23    14    15 1   
    24    14    16 1   
    25    14    32 1   
    26    15    33 1   
    27    16    17 1   
    28    16    34 1   
    29    16    35 1   
    30    17    18 1   
    31    17    36 1   
    32    18    19 1   
    33    18    20 1   
    34    18    21 1   
    35    19    37 1   
    36    19    38 1   
    37    19    39 1   
    38    20    40 1   
    39    20    41 1   
    40    20    42 1   
    41    21    43 1   
    42    21    44 1   
    43    21    45 1   
    44    22    26 1   
    45    22    27 1   
    46    22    28 1   
@<TRIPOS>SUBSTRUCTURE
     1 XTK         1 TEMP              0 ****  ****    0 ROOT
