@<TRIPOS>MOLECULE
molecule
   45    46     1     0     0
SMALL
bcc


@<TRIPOS>ATOM
      1 N3          -1.5030     0.0140    -2.0820 n1         1 XTK      -0.351800
      2 C16         -0.8310     0.0010    -1.1670 cg         1 XTK       0.221500
      3 C1           0.0000     0.0000     0.0000 cc         1 XTK       0.012200
      4 N1           1.3820     0.0000     0.0000 na         1 XTK      -0.160400
      5 C8           1.8250     0.0000     1.3030 ca         1 XTK       0.012800
      6 C7           3.0930    -0.0010     1.8760 ca         1 XTK      -0.144300
      7 C6           3.2320    -0.0010     3.2470 ca         1 XTK      -0.054000
      8 C5           2.1160    -0.0010     4.0710 ca         1 XTK      -0.260000
      9 C2          -0.4450     0.0060     1.2850 cd         1 XTK      -0.100200
     10 C3           0.6880     0.0010     2.1330 ca         1 XTK      -0.136800
     11 C4           0.8460     0.0000     3.5290 ca         1 XTK       0.202100
     12 O1          -0.2430    -0.0010     4.3410 os         1 XTK      -0.322900
     13 C9          -0.0020    -0.0020     5.7500 c3         1 XTK       0.119400
     14 C10         -1.3380    -0.0030     6.4950 c3         1 XTK       0.151100
     15 O2          -2.0320    -1.2240     6.2290 oh         1 XTK      -0.581800
     16 C11         -1.0840     0.1210     7.9980 c3         1 XTK       0.147800
     17 N2          -2.3670     0.1200     8.7140 n7         1 XTK      -0.797200
     18 C12         -2.1610     0.2390    10.1630 c3         1 XTK       0.166200
     19 C15         -1.4290     1.5470    10.4700 c3         1 XTK      -0.096100
     20 C14         -3.5170     0.2340    10.8730 c3         1 XTK      -0.096100
     21 C13         -1.3230    -0.9420    10.6580 c3         1 XTK      -0.096100
     22 C17          4.3160    -0.0020     0.9960 c3         1 XTK      -0.041800
     23 H1           1.9640     0.0000    -0.8140 hn         1 XTK       0.308700
     24 H2          -1.4770     0.1030     1.6010 ha         1 XTK       0.168000
     25 H6           4.2230    -0.0010     3.6850 ha         1 XTK       0.135000
     26 H171         4.3130    -0.8890     0.3750 hc         1 XTK       0.040367
     27 H172         5.2060     0.0040     1.6140 hc         1 XTK       0.040367
     28 H173         4.3080     0.8800     0.3660 hc         1 XTK       0.040367
     29 H5           2.2420    -0.0000     5.1470 ha         1 XTK       0.137000
     30 H91C         0.5620     0.8820     6.0200 h1         1 XTK       0.047200
     31 H92C         0.5620    -0.8870     6.0190 h1         1 XTK       0.047200
     32 H10         -1.9390     0.8340     6.1600 h1         1 XTK       0.039700
     33 HA          -2.7910    -1.0450     5.6990 ho         1 XTK       0.408000
     34 H111        -0.5590     1.0470     8.2000 h1         1 XTK       0.044700
     35 H112        -0.4830    -0.7160     8.3330 h1         1 XTK       0.044700
     36 HB          -2.9290     0.8840     8.3930 hn         1 XTK       0.348800
     37 H151        -1.8420     2.3430     9.8620 hc         1 XTK       0.039700
     38 H152        -0.3750     1.4320    10.2480 hc         1 XTK       0.039700
     39 H153        -1.5520     1.7930    11.5180 hc         1 XTK       0.039700
     40 H141        -3.3640     0.2880    11.9440 hc         1 XTK       0.039700
     41 H142        -4.0980     1.0890    10.5480 hc         1 XTK       0.039700
     42 H143        -4.0480    -0.6780    10.6290 hc         1 XTK       0.039700
     43 H131        -0.2770    -0.7600    10.4380 hc         1 XTK       0.039700
     44 H132        -1.6440    -1.8480    10.1580 hc         1 XTK       0.039700
     45 H133        -1.4520    -1.0550    11.7270 hc         1 XTK       0.039700
@<TRIPOS>BOND
     1     1     2 3
     2     2     3 1
     3     3     4 1
     4     3     9 2
     5     4     5 1
     6     5     6 ar
     7     5    10 ar
     8     6     7 ar
     9     6    22 1
    10     7     8 ar
    11     8    11 ar
    12     9    10 1
    13    10    11 ar
    14    11    12 1
    15    12    13 1
    16    13    14 1
    17    14    15 1
    18    14    16 1
    19    16    17 1
    20    17    18 1
    21    18    19 1
    22    18    20 1
    23    18    21 1
    24     4    23 1
    25     9    24 1
    26     7    25 1
    27    22    26 1
    28    22    27 1
    29    22    28 1
    30     8    29 1
    31    13    30 1
    32    13    31 1
    33    14    32 1
    34    15    33 1
    35    16    34 1
    36    16    35 1
    37    17    36 1
    38    19    37 1
    39    19    38 1
    40    19    39 1
    41    20    40 1
    42    20    41 1
    43    20    42 1
    44    21    43 1
    45    21    44 1
    46    21    45 1
@<TRIPOS>SUBSTRUCTURE
     1 XTK         1 TEMP              0 ****  ****    0 ROOT
