@<TRIPOS>MOLECULE
XTN
   19    20     1     0     0
SMALL
bcc


@<TRIPOS>ATOM
      1 N1           0.0000     0.0000     0.0000 na         1 XTN      -0.089000
      2 C2           1.3560     0.0000     0.0000 cc         1 XTN       0.215100
      3 N2           2.0120    -0.0010    -1.2000 nz         1 XTN       0.190400
      4 N3           2.0680     0.0000     1.1070 nd         1 XTN      -0.539100
      5 C4           1.4810     0.0000     2.3130 c          1 XTN       0.700700
      6 O4           2.1510    -0.0000     3.3320 o          1 XTN      -0.496100
      7 N5          -0.6430    -0.0000     3.5850 ns         1 XTN       0.149900
      8 C6          -1.9960    -0.0000     3.5930 c          1 XTN       0.419200
      9 O6          -2.6090    -0.0000     4.6470 o          1 XTN      -0.575500
     10 C7          -2.7100    -0.0010     2.3130 cc         1 XTN       0.441200
     11 N8          -2.0410     0.0010     1.1910 nd         1 XTN      -0.439300
     12 C4A          0.0100     0.0000     2.3800 cc         1 XTN      -0.229600
     13 C8A         -0.7040     0.0010     1.1890 cd         1 XTN       0.017600
     14 HN1         -0.4960    -0.0010    -0.8690 hn         1 XTN       0.294800
     15 HN2          1.7580    -0.8190    -1.7180 hn         1 XTN       0.228800
     16 HN2A         1.7580     0.8150    -1.7200 hn         1 XTN       0.228800
     17 H7          -3.7940    -0.0010     2.2980 h4         1 XTN       0.038800
     18 H5          -0.1280     0.0000     4.4430 hn         1 XTN       0.212500
     19 H23          3.0000     0.0000    -1.0400 hn         1 XTN       0.228800
@<TRIPOS>BOND
     1     1     2 1   
     2     1    13 1   
     3     1    14 1   
     4     2     3 1   
     5     2     4 2   
     6     3    15 1   
     7     3    16 1   
     8     3    19 1   
     9     4     5 1   
    10     5     6 2   
    11     5    12 1   
    12     7     8 1   
    13     7    12 1   
    14     7    18 1   
    15     8     9 2   
    16     8    10 1   
    17    10    11 2   
    18    10    17 1   
    19    11    13 1   
    20    12    13 2   
@<TRIPOS>SUBSTRUCTURE
     1 XTN         1 TEMP              0 ****  ****    0 ROOT
