@<TRIPOS>MOLECULE
molecule
   41    44     1     0     0
SMALL
bcc


@<TRIPOS>ATOM
      1 NAA         -1.2900    -0.0200    -2.2210 n1         1 XTV      -0.368800
      2 CAC         -0.7200    -0.0000    -1.2380 cg         1 XTV       0.252800
      3 CAT          0.0000     0.0000     0.0000 ca         1 XTV      -0.047000
      4 CAF          1.3970     0.0000     0.0000 ca         1 XTV      -0.059000
      5 CAD          2.0830     0.0000     1.1950 ca         1 XTV      -0.167000
      6 CAE          1.3950    -0.0010     2.3970 ca         1 XTV      -0.068000
      7 CAG          0.0150    -0.0010     2.4110 ca         1 XTV      -0.206000
      8 CAW         -0.6940     0.0040     1.2180 ca         1 XTV       0.178100
      9 OAQ         -2.0500     0.0040     1.2320 os         1 XTV      -0.232200
     10 CAV         -2.6770     0.1080     2.4330 ca         1 XTV       0.093100
     11 CAR         -2.9240     1.3630     2.9840 ca         1 XTV       0.102100
     12 CAJ         -3.5640     1.4640     4.2090 ca         1 XTV      -0.147000
     13 OAB         -2.5380     2.4860     2.3220 oh         1 XTV      -0.502100
     14 CAI         -3.0780    -1.0330     3.1100 ca         1 XTV      -0.120000
     15 CAH         -3.7140    -0.9250     4.3310 ca         1 XTV      -0.094000
     16 CAS         -3.9550     0.3210     4.8820 ca         1 XTV      -0.103300
     17 CAN         -4.6500     0.4340     6.2130 c3         1 XTV       0.112600
     18 NAY         -3.6540     0.4220     7.2880 na         1 XTV       0.122400
     19 CAK         -3.5140     1.3620     8.2500 cd         1 XTV      -0.292600
     20 NAP         -2.7630    -0.4880     7.4800 nd         1 XTV      -0.202800
     21 NAO         -2.0500    -0.1990     8.5110 nc         1 XTV      -0.358000
     22 CAU         -2.4800     0.9570     9.0250 cc         1 XTV       0.302600
     23 CAX         -1.9310     1.6660    10.2360 cx         1 XTV      -0.154000
     24 CAL         -2.3050     3.1380    10.4240 cx         1 XTV      -0.124400
     25 CAM         -0.8850     2.7590     9.9990 cx         1 XTV      -0.124400
     26 H1           1.9390     0.0300    -0.9380 ha         1 XTV       0.146000
     27 H2           3.1670     0.0000     1.1970 ha         1 XTV       0.139000
     28 H3           1.9400    -0.0010     3.3340 ha         1 XTV       0.140000
     29 H4          -0.5180    -0.0020     3.3540 ha         1 XTV       0.153000
     30 H5          -3.7570     2.4390     4.6400 ha         1 XTV       0.144000
     31 H6          -3.3010     2.9700     2.0520 ho         1 XTV       0.427000
     32 H7          -2.8910    -2.0100     2.6820 ha         1 XTV       0.157000
     33 H8          -4.0270    -1.8170     4.8600 ha         1 XTV       0.151000
     34 H9          -5.3560    -0.3810     6.3220 h1         1 XTV       0.074700
     35 H10         -5.1780     1.3780     6.2660 h1         1 XTV       0.074700
     36 H11         -4.1190     2.2540     8.3610 h4         1 XTV       0.180000
     37 H12         -1.7320     0.9300    11.0050 hc         1 XTV       0.111700
     38 H13         -2.7190     3.6300     9.5520 hc         1 XTV       0.077450
     39 H14         -2.6450     3.4100    11.4160 hc         1 XTV       0.077450
     40 H15         -0.0170     2.7220    10.6460 hc         1 XTV       0.077450
     41 H16         -0.7890     3.1000     8.9760 hc         1 XTV       0.077450
@<TRIPOS>BOND
     1    21    22 1
     2    21    20 2
     3    23    25 1
     4    23    22 1
     5    23    24 1
     6    25    24 1
     7    22    19 2
     8    20    18 1
     9    18    19 1
    10    18    17 1
    11    15    14 ar
    12    15    16 ar
    13    17    16 1
    14    14    10 ar
    15    16    12 ar
    16    10     9 1
    17    10    11 ar
    18     7     6 ar
    19     7     8 ar
    20    12    11 ar
    21     6     5 ar
    22     9     8 1
    23     8     3 ar
    24    11    13 1
    25     5     4 ar
    26     3     4 ar
    27     3     2 1
    28     2     1 3
    29     4    26 1
    30     5    27 1
    31     6    28 1
    32     7    29 1
    33    12    30 1
    34    13    31 1
    35    14    32 1
    36    15    33 1
    37    17    34 1
    38    17    35 1
    39    19    36 1
    40    23    37 1
    41    24    38 1
    42    24    39 1
    43    25    40 1
    44    25    41 1
@<TRIPOS>SUBSTRUCTURE
     1 XTV         1 TEMP              0 ****  ****    0 ROOT
