@<TRIPOS>MOLECULE
XTV
   41    44     1     0     0
SMALL
bcc


@<TRIPOS>ATOM
      1 NAA         -1.2900    -0.0200    -2.2210 n1         1 XTV      -0.389800
      2 CAC         -0.7200    -0.0000    -1.2380 cg         1 XTV       0.245800
      3 CAT          0.0000     0.0000     0.0000 ca         1 XTV      -0.012000
      4 CAF          1.3970     0.0000     0.0000 ca         1 XTV      -0.035000
      5 CAD          2.0830     0.0000     1.1950 ca         1 XTV      -0.142000
      6 CAE          1.3950    -0.0010     2.3970 ca         1 XTV      -0.034000
      7 CAG          0.0150    -0.0010     2.4110 ca         1 XTV      -0.196000
      8 CAW         -0.6940     0.0040     1.2180 ca         1 XTV       0.179100
      9 OAQ         -2.0500     0.0040     1.2320 os         1 XTV      -0.205200
     10 CAV         -2.6770     0.1080     2.4330 ca         1 XTV       0.087100
     11 CAR         -2.9240     1.3630     2.9840 ca         1 XTV       0.117100
     12 CAJ         -3.5640     1.4640     4.2090 ca         1 XTV      -0.131000
     13 OAB         -2.5380     2.4860     2.3220 oh         1 XTV      -0.483100
     14 CAI         -3.0780    -1.0330     3.1100 ca         1 XTV      -0.092000
     15 CAH         -3.7140    -0.9250     4.3310 ca         1 XTV      -0.065000
     16 CAS         -3.9550     0.3210     4.8820 ca         1 XTV      -0.113300
     17 CAN         -4.6500     0.4340     6.2130 c3         1 XTV       0.037600
     18 NAY         -3.6540     0.4220     7.2880 na         1 XTV       0.587400
     19 CAK         -3.5140     1.3620     8.2500 cc         1 XTV      -0.454600
     20 NAP         -2.7630    -0.4880     7.4800 nc         1 XTV      -0.375800
     21 NAO         -2.0500    -0.1990     8.5110 nd         1 XTV      -0.308000
     22 CAU         -2.4800     0.9570     9.0250 cd         1 XTV       0.295600
     23 CAX         -1.9310     1.6660    10.2360 cx         1 XTV      -0.119000
     24 CAL         -2.3050     3.1380    10.4240 cx         1 XTV      -0.069900
     25 CAM         -0.8850     2.7590     9.9990 cx         1 XTV      -0.069900
     26 H1           1.9390     0.0300    -0.9380 ha         1 XTV       0.113000
     27 H2           3.1670     0.0000     1.1970 ha         1 XTV       0.111000
     28 H3           1.9400    -0.0010     3.3340 ha         1 XTV       0.107000
     29 H4          -0.5180    -0.0020     3.3540 ha         1 XTV       0.131000
     30 H5          -3.7570     2.4390     4.6400 ha         1 XTV       0.117000
     31 H6          -3.3010     2.9700     2.0520 ho         1 XTV       0.410000
     32 H7          -2.8910    -2.0100     2.6820 ha         1 XTV       0.125000
     33 H8          -4.0270    -1.8170     4.8600 ha         1 XTV       0.121000
     34 H9          -5.3560    -0.3810     6.3220 h1         1 XTV       0.041200
     35 H10         -5.1780     1.3780     6.2660 h1         1 XTV       0.041200
     36 H11         -4.1190     2.2540     8.3610 h4         1 XTV       0.162000
     37 H12         -1.7320     0.9300    11.0050 hc         1 XTV       0.079700
     38 H13         -2.7190     3.6300     9.5520 hc         1 XTV       0.046950
     39 H14         -2.6450     3.4100    11.4160 hc         1 XTV       0.046950
     40 H15         -0.0170     2.7220    10.6460 hc         1 XTV       0.046950
     41 H16         -0.7890     3.1000     8.9760 hc         1 XTV       0.046950
@<TRIPOS>BOND
     1     1     2 3   
     2     2     3 1   
     3     3     4 ar  
     4     3     8 ar  
     5     4     5 ar  
     6     4    26 1   
     7     5     6 ar  
     8     5    27 1   
     9     6     7 ar  
    10     6    28 1   
    11     7     8 ar  
    12     7    29 1   
    13     8     9 1   
    14     9    10 1   
    15    10    11 ar  
    16    10    14 ar  
    17    11    12 ar  
    18    11    13 1   
    19    12    16 ar  
    20    12    30 1   
    21    13    31 1   
    22    14    15 ar  
    23    14    32 1   
    24    15    16 ar  
    25    15    33 1   
    26    16    17 1   
    27    17    18 1   
    28    17    34 1   
    29    17    35 1   
    30    18    19 1   
    31    18    20 1   
    32    19    22 2   
    33    19    36 1   
    34    20    21 2   
    35    21    22 1   
    36    22    23 1   
    37    23    24 1   
    38    23    25 1   
    39    23    37 1   
    40    24    25 1   
    41    24    38 1   
    42    24    39 1   
    43    25    40 1   
    44    25    41 1   
@<TRIPOS>SUBSTRUCTURE
     1 XTV         1 TEMP              0 ****  ****    0 ROOT
