@<TRIPOS>MOLECULE
molecule
   40    43     1     0     0
SMALL
bcc


@<TRIPOS>ATOM
      1 Cl           0.0000     0.0000     0.0000 cl         1 XTW      -0.098400
      2 CAS          1.7370     0.0000     0.0000 ca         1 XTW       0.003400
      3 CAE          2.4280     0.0000     1.1960 ca         1 XTW      -0.092000
      4 CAC          3.8110    -0.0000     1.1960 ca         1 XTW      -0.154000
      5 CAD          4.5050     0.0000     0.0000 ca         1 XTW      -0.089000
      6 CAF          3.8180     0.0020    -1.1980 ca         1 XTW      -0.193000
      7 CAV          2.4310    -0.0040    -1.2020 ca         1 XTW       0.148100
      8 OAP          1.7540    -0.0040    -2.3800 os         1 XTW      -0.231200
      9 CAU          2.4720    -0.1090    -3.5310 ca         1 XTW       0.098100
     10 CAQ          2.8230    -1.3630    -4.0230 ca         1 XTW       0.101100
     11 CAI          3.5540    -1.4640    -5.1940 ca         1 XTW      -0.149000
     12 OAA          2.4480    -2.4860    -3.3550 oh         1 XTW      -0.500100
     13 CAH          2.8530     1.0330    -4.2170 ca         1 XTW      -0.121000
     14 CAG          3.5830     0.9250    -5.3870 ca         1 XTW      -0.096000
     15 CAR          3.9350    -0.3190    -5.8730 ca         1 XTW      -0.105300
     16 CAM          4.7320    -0.4310    -7.1470 c3         1 XTW       0.111600
     17 NAX          6.1620    -0.4200    -6.8320 na         1 XTW       0.124400
     18 CAJ          7.0630    -1.3600    -7.2010 cc         1 XTW      -0.291600
     19 NAO          6.7790     0.4900    -6.1620 nd         1 XTW      -0.200800
     20 NAN          8.0290     0.1990    -6.0650 nc         1 XTW      -0.354000
     21 CAT          8.2550    -0.9560    -6.7030 cc         1 XTW       0.315600
     22 CAW          9.5770    -1.6670    -6.8390 cx         1 XTW      -0.145000
     23 CAK         10.3900    -1.4080    -8.1090 cx         1 XTW      -0.131900
     24 CAL          9.6870    -2.7530    -7.9100 cx         1 XTW      -0.131900
     25 H1           1.8870    -0.0000     2.1340 ha         1 XTW       0.147000
     26 H2           4.3510    -0.0010     2.1350 ha         1 XTW       0.137000
     27 H3           5.5890     0.0030     0.0030 ha         1 XTW       0.138000
     28 H4           4.3630     0.0000    -2.1350 ha         1 XTW       0.151000
     29 H5           3.8290    -2.4380    -5.5780 ha         1 XTW       0.143000
     30 H6           1.8480    -2.9820    -3.8860 ho         1 XTW       0.425000
     31 H7           2.5780     2.0100    -3.8380 ha         1 XTW       0.157000
     32 H8           3.8820     1.8190    -5.9220 ha         1 XTW       0.149000
     33 H9           4.4980     0.4060    -7.7940 h1         1 XTW       0.074200
     34 H10          4.4800    -1.3570    -7.6500 h1         1 XTW       0.074200
     35 H11          6.8680    -2.2570    -7.7760 h4         1 XTW       0.181000
     36 H12         10.1690    -1.8450    -5.9490 hc         1 XTW       0.099700
     37 H13          9.9320    -0.7430    -8.8300 hc         1 XTW       0.075950
     38 H14         11.4670    -1.4200    -7.9850 hc         1 XTW       0.075950
     39 H15         10.3340    -3.5870    -7.6650 hc         1 XTW       0.075950
     40 H16          8.7990    -2.9100    -8.5100 hc         1 XTW       0.075950
@<TRIPOS>BOND
     1    24    23 1
     2    24    22 1
     3    23    22 1
     4    22    21 1
     5     5     4 ar
     6     5     6 ar
     7     4     3 ar
     8    21    20 1
     9    21    18 2
    10     6     7 ar
    11    20    19 2
    12     3     2 ar
    13    18    17 1
    14     7     2 ar
    15     7     8 1
    16     2     1 1
    17    19    17 1
    18    17    16 1
    19     8     9 1
    20     9    13 ar
    21     9    10 ar
    22    13    14 ar
    23    14    15 ar
    24    12    10 1
    25    10    11 ar
    26    15    11 ar
    27    15    16 1
    28     3    25 1
    29     4    26 1
    30     5    27 1
    31     6    28 1
    32    11    29 1
    33    12    30 1
    34    13    31 1
    35    14    32 1
    36    16    33 1
    37    16    34 1
    38    18    35 1
    39    22    36 1
    40    23    37 1
    41    23    38 1
    42    24    39 1
    43    24    40 1
@<TRIPOS>SUBSTRUCTURE
     1 XTW         1 TEMP              0 ****  ****    0 ROOT
