@<TRIPOS>MOLECULE
XTZ
   46    49     1     0     0
SMALL
bcc


@<TRIPOS>ATOM
      1 O3           0.0000     0.0000     0.0000 o          1 XTZ      -0.573500
      2 C16          1.2200     0.0000     0.0000 c          1 XTZ       0.599700
      3 N2           1.9130     0.0000     1.1600 ns         1 XTZ       0.032600
      4 C3           1.9410    -0.0050    -1.2100 cc         1 XTZ      -0.023600
      5 N4           1.3090    -0.0030    -2.4180 ne         1 XTZ      -0.407300
      6 C4           1.9380    -0.2540    -3.5130 c2         1 XTZ       0.369300
      7 C15          3.4050    -0.6000    -3.5140 c3         1 XTZ       0.101500
      8 N8           4.0460     0.0170    -2.3430 nu         1 XTZ      -0.342000
      9 C2           3.3420     0.0050    -1.1530 cd         1 XTZ       0.139600
     10 N3           3.9610     0.0040     0.0250 nd         1 XTZ      -0.427300
     11 C1           3.2740    -0.0010     1.1500 cc         1 XTZ       0.005800
     12 N1           3.9470    -0.0050     2.3420 nz         1 XTZ       0.216400
     13 C5           1.1920    -0.2000    -4.8210 c3         1 XTZ       0.138500
     14 N5          -0.2080     0.1530    -4.5700 nu         1 XTZ      -0.440600
     15 C6          -1.1030     0.2630    -5.6380 ca         1 XTZ       0.104600
     16 C14         -0.6680     0.0340    -6.9370 ca         1 XTZ      -0.223500
     17 C13         -1.5540     0.1440    -7.9900 ca         1 XTZ       0.066000
     18 C9          -2.8740     0.4830    -7.7520 ca         1 XTZ      -0.209500
     19 C8          -3.3100     0.7120    -6.4600 ca         1 XTZ       0.066000
     20 C7          -2.4300     0.5980    -5.4020 ca         1 XTZ      -0.223500
     21 S1          -4.0020     0.6220    -9.0990 sy         1 XTZ       1.036200
     22 O1          -5.0480     1.4780    -8.6580 o          1 XTZ      -0.568300
     23 O2          -3.2170     0.8860   -10.2530 o          1 XTZ      -0.568300
     24 N6          -4.6820    -0.8700    -9.3250 nu         1 XTZ      -0.445800
     25 C10         -5.4890    -1.4210    -8.3420 cc         1 XTZ       0.611300
     26 S2          -6.2520    -2.9470    -8.4420 ss         1 XTZ      -0.310300
     27 C12         -6.9570    -2.7110    -6.8450 cc         1 XTZ      -0.142400
     28 C11         -6.5590    -1.5250    -6.3870 cd         1 XTZ       0.396200
     29 N7          -5.7680    -0.8560    -7.2080 nd         1 XTZ      -0.640000
     30 H1           3.5220    -1.6760    -3.4650 h1         1 XTZ       0.046700
     31 H3           3.6710    -0.8040     2.8780 hn         1 XTZ       0.219800
     32 H4           3.7320     0.8290     2.8500 hn         1 XTZ       0.219800
     33 H5           1.2390    -1.1690    -5.3040 h1         1 XTZ       0.037700
     34 H6           1.6430     0.5460    -5.4640 h1         1 XTZ       0.037700
     35 H7          -0.5190     0.3310    -3.6360 hn         1 XTZ       0.325800
     36 H8           0.3650    -0.2320    -7.1230 ha         1 XTZ       0.113000
     37 H9          -1.2150    -0.0350    -9.0030 ha         1 XTZ       0.131000
     38 H10         -4.3450     0.9750    -6.2770 ha         1 XTZ       0.131000
     39 H11         -2.7730     0.7770    -4.3900 ha         1 XTZ       0.113000
     40 H12         -4.5310    -1.3630   -10.1830 hn         1 XTZ       0.352800
     41 H13         -7.6030    -3.4090    -6.3260 h4         1 XTZ       0.162000
     42 H14         -6.8560    -1.1420    -5.4180 h4         1 XTZ       0.000100
     43 H15          1.4220    -0.0040     2.0320 hn         1 XTZ       0.187500
     44 H16          3.8650    -0.2220    -4.4190 h1         1 XTZ       0.046700
     45 H17          4.9550     0.4300    -2.4050 hn         1 XTZ       0.317800
     46 H131         4.9330    -0.0320     2.1680 hn         1 XTZ       0.219800
@<TRIPOS>BOND
     1     1     2 2   
     2     2     3 1   
     3     2     4 1   
     4     3    11 1   
     5     3    43 1   
     6     4     5 1   
     7     4     9 2   
     8     5     6 2   
     9     6     7 1   
    10     6    13 1   
    11     7     8 1   
    12     7    30 1   
    13     7    44 1   
    14     8     9 1   
    15     8    45 1   
    16     9    10 1   
    17    10    11 2   
    18    11    12 1   
    19    12    31 1   
    20    12    32 1   
    21    12    46 1   
    22    13    14 1   
    23    13    33 1   
    24    13    34 1   
    25    14    15 1   
    26    14    35 1   
    27    15    16 ar  
    28    15    20 ar  
    29    16    17 ar  
    30    16    36 1   
    31    17    18 ar  
    32    17    37 1   
    33    18    19 ar  
    34    18    21 1   
    35    19    20 ar  
    36    19    38 1   
    37    20    39 1   
    38    21    22 2   
    39    21    23 2   
    40    21    24 1   
    41    24    25 1   
    42    24    40 1   
    43    25    26 1   
    44    25    29 2   
    45    26    27 1   
    46    27    28 2   
    47    27    41 1   
    48    28    29 1   
    49    28    42 1   
@<TRIPOS>SUBSTRUCTURE
     1 XTZ         1 TEMP              0 ****  ****    0 ROOT
