@<TRIPOS>MOLECULE
molecule
   46    49     1     0     0
SMALL
bcc


@<TRIPOS>ATOM
      1 O3           0.0000     0.0000     0.0000 o          1 XTZ      -0.532500
      2 C16          1.2200     0.0000     0.0000 c          1 XTZ       0.709700
      3 N2           1.9130     0.0000     1.1600 ns         1 XTZ      -0.451400
      4 C3           1.9410    -0.0050    -1.2100 cc         1 XTZ       0.004400
      5 N4           1.3090    -0.0030    -2.4180 ne         1 XTZ      -0.540300
      6 C4           1.9380    -0.2540    -3.5130 c2         1 XTZ       0.433300
      7 C15          3.4050    -0.6000    -3.5140 c3         1 XTZ       0.150500
      8 N8           4.0460     0.0170    -2.3430 nu         1 XTZ      -0.772000
      9 C2           3.3420     0.0050    -1.1530 cd         1 XTZ       0.353600
     10 N3           3.9610     0.0040     0.0250 nd         1 XTZ      -0.604300
     11 C1           3.2740    -0.0010     1.1500 cc         1 XTZ       0.472800
     12 N1           3.9470    -0.0050     2.3420 nz         1 XTZ      -0.733600
     13 C5           1.1920    -0.2000    -4.8210 c3         1 XTZ       0.207500
     14 N5          -0.2080     0.1530    -4.5700 nu         1 XTZ      -0.824600
     15 C6          -1.1030     0.2630    -5.6380 ca         1 XTZ       0.242600
     16 C14         -0.6680     0.0340    -6.9370 ca         1 XTZ      -0.234500
     17 C13         -1.5540     0.1440    -7.9900 ca         1 XTZ       0.031000
     18 C9          -2.8740     0.4830    -7.7520 ca         1 XTZ      -0.358500
     19 C8          -3.3100     0.7120    -6.4600 ca         1 XTZ       0.031000
     20 C7          -2.4300     0.5980    -5.4020 ca         1 XTZ      -0.234500
     21 S1          -4.0020     0.6220    -9.0990 sy         1 XTZ       1.425200
     22 O1          -5.0480     1.4780    -8.6580 o          1 XTZ      -0.615800
     23 O2          -3.2170     0.8860   -10.2530 o          1 XTZ      -0.615800
     24 N6          -4.6820    -0.8700    -9.3250 nu         1 XTZ      -0.831800
     25 C10         -5.4890    -1.4210    -8.3420 cc         1 XTZ       0.700300
     26 S2          -6.2520    -2.9470    -8.4420 ss         1 XTZ      -0.198300
     27 C12         -6.9570    -2.7110    -6.8450 cc         1 XTZ      -0.207400
     28 C11         -6.5590    -1.5250    -6.3870 cd         1 XTZ       0.404200
     29 N7          -5.7680    -0.8560    -7.2080 nd         1 XTZ      -0.748000
     30 H1           3.5220    -1.6760    -3.4650 h1         1 XTZ       0.083200
     31 H3           3.6710    -0.8040     2.8780 hn         1 XTZ       0.480133
     32 H4           3.7320     0.8290     2.8500 hn         1 XTZ       0.480133
     33 H5           1.2390    -1.1690    -5.3040 h1         1 XTZ       0.070700
     34 H6           1.6430     0.5460    -5.4640 h1         1 XTZ       0.070700
     35 H7          -0.5190     0.3310    -3.6360 hn         1 XTZ       0.470800
     36 H8           0.3650    -0.2320    -7.1230 ha         1 XTZ       0.131500
     37 H9          -1.2150    -0.0350    -9.0030 ha         1 XTZ       0.162500
     38 H10         -4.3450     0.9750    -6.2770 ha         1 XTZ       0.162500
     39 H11         -2.7730     0.7770    -4.3900 ha         1 XTZ       0.131500
     40 H12         -4.5310    -1.3630   -10.1830 hn         1 XTZ       0.474800
     41 H13         -7.6030    -3.4090    -6.3260 h4         1 XTZ       0.185000
     42 H14         -6.8560    -1.1420    -5.4180 h4         1 XTZ       0.048100
     43 H15          1.4220    -0.0040     2.0320 hn         1 XTZ       0.348500
     44 H16          3.8650    -0.2220    -4.4190 h1         1 XTZ       0.083200
     45 H17          4.9550     0.4300    -2.4050 hn         1 XTZ       0.475800
     46 H131         4.9330    -0.0320     2.1680 hn         1 XTZ       0.480133
@<TRIPOS>BOND
     1    12    11 1
     2     3    11 1
     3     3     2 1
     4    11    10 2
     5     1     2 2
     6     2     4 1
     7    10     9 1
     8     4     9 2
     9     4     5 1
    10     9     8 1
    11     5     6 2
    12     8     7 1
    13    23    21 2
    14    16    17 ar
    15    16    15 ar
    16    17    18 ar
    17     6     7 1
    18     6    13 1
    19    14    15 1
    20    14    13 1
    21    21    18 1
    22    21    24 1
    23    21    22 2
    24    15    20 ar
    25    18    19 ar
    26    24    25 1
    27    20    19 ar
    28    25    26 1
    29    25    29 2
    30    26    27 1
    31    29    28 1
    32    27    28 2
    33     7    30 1
    34    12    31 1
    35    12    32 1
    36    13    33 1
    37    13    34 1
    38    14    35 1
    39    16    36 1
    40    17    37 1
    41    19    38 1
    42    20    39 1
    43    24    40 1
    44    27    41 1
    45    28    42 1
    46     3    43 1
    47     7    44 1
    48     8    45 1
    49    46    12 1
@<TRIPOS>SUBSTRUCTURE
     1 XTZ         1 TEMP              0 ****  ****    0 ROOT
