@<TRIPOS>MOLECULE
XU1
   23    25     1     0     0
SMALL
bcc


@<TRIPOS>ATOM
      1 C11          0.0000     0.0000     0.0000 ca         1 XU1      -0.066000
      2 C12          1.3790     0.0000     0.0000 ca         1 XU1      -0.115000
      3 C8           2.0660     0.0000     1.2090 ca         1 XU1       0.013000
      4 C1           3.5390     0.0010     1.2660 ca         1 XU1      -0.196300
      5 C10         -0.7060     0.0050     1.1930 ca         1 XU1      -0.120000
      6 C9          -0.0430     0.0120     2.4020 ca         1 XU1      -0.022000
      7 C7           1.3500     0.0010     2.4240 ca         1 XU1      -0.157600
      8 C6           2.1000     0.0060     3.6880 c          1 XU1       0.620100
      9 O1           1.5010     0.0220     4.7470 o          1 XU1      -0.671500
     10 N2           3.4450    -0.0060     3.6840 ns         1 XU1      -0.055400
     11 C5           4.1820     0.0020     2.5150 ca         1 XU1       0.370200
     12 N1           5.5070     0.0030     2.5720 nb         1 XU1      -0.620000
     13 C4           6.2500     0.0040     1.4840 ca         1 XU1       0.448200
     14 C3           5.6830     0.0020     0.2220 ca         1 XU1      -0.256300
     15 C2           4.3030     0.0020     0.0990 ca         1 XU1      -0.023000
     16 H1          -0.5360    -0.0050    -0.9410 ha         1 XU1       0.103000
     17 H2           1.9240    -0.0040    -0.9360 ha         1 XU1       0.112000
     18 H3          -1.7900     0.0050     1.1750 ha         1 XU1       0.108000
     19 H4          -0.6020     0.0160     3.3300 ha         1 XU1       0.128000
     20 H5           3.9300    -0.0210     4.5600 hn         1 XU1       0.185500
     21 H6           7.3290     0.0040     1.5790 h4         1 XU1      -0.019900
     22 H7           6.3110     0.0030    -0.6610 ha         1 XU1       0.118000
     23 H8           3.8310     0.0010    -0.8750 ha         1 XU1       0.117000
@<TRIPOS>BOND
     1     1     2 ar  
     2     1     5 ar  
     3     1    16 1   
     4     2     3 ar  
     5     2    17 1   
     6     3     4 1   
     7     3     7 ar  
     8     4    11 ar  
     9     4    15 ar  
    10     5     6 ar  
    11     5    18 1   
    12     6     7 ar  
    13     6    19 1   
    14     7     8 1   
    15     8     9 2   
    16     8    10 1   
    17    10    11 1   
    18    10    20 1   
    19    11    12 ar  
    20    12    13 ar  
    21    13    14 ar  
    22    13    21 1   
    23    14    15 ar  
    24    14    22 1   
    25    15    23 1   
@<TRIPOS>SUBSTRUCTURE
     1 XU1         1 TEMP              0 ****  ****    0 ROOT
