@<TRIPOS>MOLECULE
XU2
   49    53     1     0     0
SMALL
bcc


@<TRIPOS>ATOM
      1 O12          0.0000     0.0000     0.0000 o          1 XU2      -0.670500
      2 C8           1.2170     0.0000     0.0000 c          1 XU2       0.620100
      3 C7           1.9480     0.0000     1.2750 ca         1 XU2      -0.158600
      4 C6           1.2810     0.0010     2.4990 ca         1 XU2      -0.025000
      5 C5           2.0060     0.0010     3.6700 ca         1 XU2      -0.120000
      6 C1           3.3940     0.0010     3.6440 ca         1 XU2      -0.062000
      7 C2           4.0730     0.0000     2.4430 ca         1 XU2      -0.168000
      8 C3           3.3580    -0.0010     1.2490 ca         1 XU2       0.017000
      9 C4           4.0320    -0.0010    -0.0600 ca         1 XU2      -0.188300
     10 N1           1.8840    -0.0050    -1.1690 ns         1 XU2      -0.056400
     11 C9           3.2640     0.0000    -1.2320 ca         1 XU2       0.373200
     12 N2           3.8690     0.0000    -2.4150 nb         1 XU2      -0.617000
     13 C10          5.1820     0.0010    -2.5310 ca         1 XU2       0.451200
     14 C11          6.0050    -0.0000    -1.4230 ca         1 XU2      -0.259300
     15 C12          5.4330    -0.0000    -0.1520 ca         1 XU2       0.079600
     16 N3           6.2240     0.0000     0.9890 nu         1 XU2      -0.277000
     17 C13          6.5710    -1.2090     1.6000 ca         1 XU2       0.035600
     18 C14          6.2180    -2.4150     1.0050 ca         1 XU2      -0.159500
     19 C15          6.5610    -3.6080     1.6090 ca         1 XU2      -0.066000
     20 C18          7.2730    -1.2060     2.8000 ca         1 XU2      -0.159500
     21 C17          7.6150    -2.4000     3.4020 ca         1 XU2      -0.066000
     22 C16          7.2580    -3.6040     2.8100 ca         1 XU2      -0.138400
     23 N4           7.6040    -4.8160     3.4220 ns         1 XU2      -0.031100
     24 C19          7.9370    -5.8810     2.6670 c          1 XU2       0.586700
     25 O38          7.8560    -5.8170     1.4570 o          1 XU2      -0.641100
     26 C20          8.3990    -7.1280     3.3120 ca         1 XU2      -0.162600
     27 C21          8.7450    -8.2340     2.5340 ca         1 XU2      -0.058500
     28 C22          9.1760    -9.3940     3.1420 ca         1 XU2      -0.111000
     29 C23          9.2680    -9.4640     4.5210 ca         1 XU2      -0.075000
     30 C24          8.9270    -8.3720     5.2980 ca         1 XU2      -0.111000
     31 C25          8.4990    -7.2030     4.7030 ca         1 XU2      -0.058500
     32 H1           0.1980     0.0010     2.5290 ha         1 XU2       0.127000
     33 H2           1.4880     0.0010     4.6210 ha         1 XU2       0.106000
     34 H3           3.9490     0.0000     4.5740 ha         1 XU2       0.101000
     35 H4           5.1560     0.0000     2.4300 ha         1 XU2       0.157000
     36 H5           1.3610    -0.0140    -2.0220 hn         1 XU2       0.185500
     37 H6           5.6250     0.0010    -3.5190 h4         1 XU2      -0.017900
     38 H7           7.0820     0.0000    -1.5400 ha         1 XU2       0.127000
     39 H8           6.5880     0.8620     1.3450 hn         1 XU2       0.299800
     40 H9           5.6750    -2.4190     0.0690 ha         1 XU2       0.115000
     41 H10          6.2840    -4.5480     1.1470 ha         1 XU2       0.124000
     42 H11          7.5520    -0.2670     3.2620 ha         1 XU2       0.115000
     43 H12          8.1600    -2.3980     4.3380 ha         1 XU2       0.124000
     44 H13          7.5790    -4.8970     4.4190 hn         1 XU2       0.171500
     45 H14          8.6740    -8.1810     1.4540 ha         1 XU2       0.113500
     46 H15          9.4450   -10.2530     2.5380 ha         1 XU2       0.106500
     47 H16          9.6050   -10.3790     4.9930 ha         1 XU2       0.103000
     48 H17          9.0030    -8.4330     6.3770 ha         1 XU2       0.106500
     49 H18          8.2320    -6.3480     5.3130 ha         1 XU2       0.113500
@<TRIPOS>BOND
     1     1     2 2   
     2     2     3 1   
     3     2    10 1   
     4     3     4 ar  
     5     3     8 ar  
     6     4     5 ar  
     7     4    32 1   
     8     5     6 ar  
     9     5    33 1   
    10     6     7 ar  
    11     6    34 1   
    12     7     8 ar  
    13     7    35 1   
    14     8     9 1   
    15     9    11 ar  
    16     9    15 ar  
    17    10    11 1   
    18    10    36 1   
    19    11    12 ar  
    20    12    13 ar  
    21    13    14 ar  
    22    13    37 1   
    23    14    15 ar  
    24    14    38 1   
    25    15    16 1   
    26    16    17 1   
    27    16    39 1   
    28    17    18 ar  
    29    17    20 ar  
    30    18    19 ar  
    31    18    40 1   
    32    19    22 ar  
    33    19    41 1   
    34    20    21 ar  
    35    20    42 1   
    36    21    22 ar  
    37    21    43 1   
    38    22    23 1   
    39    23    24 1   
    40    23    44 1   
    41    24    25 2   
    42    24    26 1   
    43    26    27 ar  
    44    26    31 ar  
    45    27    28 ar  
    46    27    45 1   
    47    28    29 ar  
    48    28    46 1   
    49    29    30 ar  
    50    29    47 1   
    51    30    31 ar  
    52    30    48 1   
    53    31    49 1   
@<TRIPOS>SUBSTRUCTURE
     1 XU2         1 TEMP              0 ****  ****    0 ROOT
