@<TRIPOS>MOLECULE
molecule
   49    53     1     0     0
SMALL
bcc


@<TRIPOS>ATOM
      1 O12          0.0000     0.0000     0.0000 o          1 XU2      -0.626500
      2 C8           1.2170     0.0000     0.0000 c          1 XU2       0.718100
      3 C7           1.9480     0.0000     1.2750 ca         1 XU2      -0.150600
      4 C6           1.2810     0.0010     2.4990 ca         1 XU2      -0.061000
      5 C5           2.0060     0.0010     3.6700 ca         1 XU2      -0.143000
      6 C1           3.3940     0.0010     3.6440 ca         1 XU2      -0.101000
      7 C2           4.0730     0.0000     2.4430 ca         1 XU2      -0.148000
      8 C3           3.3580    -0.0010     1.2490 ca         1 XU2       0.009000
      9 C4           4.0320    -0.0010    -0.0600 ca         1 XU2      -0.206300
     10 N1           1.8840    -0.0050    -1.1690 ns         1 XU2      -0.515400
     11 C9           3.2640     0.0000    -1.2320 ca         1 XU2       0.574200
     12 N2           3.8690     0.0000    -2.4150 nb         1 XU2      -0.740000
     13 C10          5.1820     0.0010    -2.5310 ca         1 XU2       0.469200
     14 C11          6.0050    -0.0000    -1.4230 ca         1 XU2      -0.297300
     15 C12          5.4330    -0.0000    -0.1520 ca         1 XU2       0.223600
     16 N3           6.2240     0.0000     0.9890 nu         1 XU2      -0.715000
     17 C13          6.5710    -1.2090     1.6000 ca         1 XU2       0.173600
     18 C14          6.2180    -2.4150     1.0050 ca         1 XU2      -0.178500
     19 C15          6.5610    -3.6080     1.6090 ca         1 XU2      -0.099000
     20 C18          7.2730    -1.2060     2.8000 ca         1 XU2      -0.178500
     21 C17          7.6150    -2.4000     3.4020 ca         1 XU2      -0.099000
     22 C16          7.2580    -3.6040     2.8100 ca         1 XU2       0.011600
     23 N4           7.6040    -4.8160     3.4220 ns         1 XU2      -0.473100
     24 C19          7.9370    -5.8810     2.6670 c          1 XU2       0.676700
     25 O38          7.8560    -5.8170     1.4570 o          1 XU2      -0.598100
     26 C20          8.3990    -7.1280     3.3120 ca         1 XU2      -0.150600
     27 C21          8.7450    -8.2340     2.5340 ca         1 XU2      -0.085000
     28 C22          9.1760    -9.3940     3.1420 ca         1 XU2      -0.137500
     29 C23          9.2680    -9.4640     4.5210 ca         1 XU2      -0.103000
     30 C24          8.9270    -8.3720     5.2980 ca         1 XU2      -0.137500
     31 C25          8.4990    -7.2030     4.7030 ca         1 XU2      -0.085000
     32 H1           0.1980     0.0010     2.5290 ha         1 XU2       0.156000
     33 H2           1.4880     0.0010     4.6210 ha         1 XU2       0.135000
     34 H3           3.9490     0.0000     4.5740 ha         1 XU2       0.131000
     35 H4           5.1560     0.0000     2.4300 ha         1 XU2       0.172000
     36 H5           1.3610    -0.0140    -2.0220 hn         1 XU2       0.351500
     37 H6           5.6250     0.0010    -3.5190 h4         1 XU2       0.031100
     38 H7           7.0820     0.0000    -1.5400 ha         1 XU2       0.153000
     39 H8           6.5880     0.8620     1.3450 hn         1 XU2       0.456800
     40 H9           5.6750    -2.4190     0.0690 ha         1 XU2       0.138000
     41 H10          6.2840    -4.5480     1.1470 ha         1 XU2       0.151000
     42 H11          7.5520    -0.2670     3.2620 ha         1 XU2       0.138000
     43 H12          8.1600    -2.3980     4.3380 ha         1 XU2       0.151000
     44 H13          7.5790    -4.8970     4.4190 hn         1 XU2       0.324500
     45 H14          8.6740    -8.1810     1.4540 ha         1 XU2       0.140500
     46 H15          9.4450   -10.2530     2.5380 ha         1 XU2       0.136000
     47 H16          9.6050   -10.3790     4.9930 ha         1 XU2       0.134000
     48 H17          9.0030    -8.4330     6.3770 ha         1 XU2       0.136000
     49 H18          8.2320    -6.3480     5.3130 ha         1 XU2       0.140500
@<TRIPOS>BOND
     1     5     4 ar
     2     5     6 ar
     3     4     3 ar
     4     6     7 ar
     5     3     2 1
     6     3     8 ar
     7     7     8 ar
     8     1     2 2
     9     2    10 1
    10     8     9 1
    11    10    11 1
    12     9    11 ar
    13     9    15 ar
    14    16    15 1
    15    16    17 1
    16    11    12 ar
    17    15    14 ar
    18    17    20 ar
    19    17    18 ar
    20    20    21 ar
    21    18    19 ar
    22    12    13 ar
    23    21    22 ar
    24    14    13 ar
    25    19    22 ar
    26    22    23 1
    27    25    24 2
    28    23    24 1
    29    24    26 1
    30    26    27 ar
    31    26    31 ar
    32    27    28 ar
    33    31    30 ar
    34    28    29 ar
    35    30    29 ar
    36     4    32 1
    37     5    33 1
    38     6    34 1
    39     7    35 1
    40    10    36 1
    41    13    37 1
    42    14    38 1
    43    16    39 1
    44    18    40 1
    45    19    41 1
    46    20    42 1
    47    21    43 1
    48    23    44 1
    49    27    45 1
    50    28    46 1
    51    29    47 1
    52    30    48 1
    53    31    49 1
@<TRIPOS>SUBSTRUCTURE
     1 XU2         1 TEMP              0 ****  ****    0 ROOT
