@<TRIPOS>MOLECULE
molecule
   57    61     1     0     0
SMALL
bcc


@<TRIPOS>ATOM
      1 N1           0.0000     0.0000     0.0000 n          1 XU3      -0.495800
      2 C2           1.4740     0.0000     0.0000 c3         1 XU3       0.127000
      3 Cl2          3.6710     1.9460     3.3840 cl         1 XU3      -0.079400
      4 C3           1.8710     0.0000     1.4970 c3         1 XU3      -0.224900
      5 Cl3          3.2120    -3.9910    -3.7630 cl         1 XU3      -0.050400
      6 C4           0.7770    -0.9130     2.1100 c3         1 XU3      -0.064400
      7 C5          -0.4710    -0.5680     1.2710 c3         1 XU3       0.061700
      8 S6           3.5220    -0.7130     1.7320 sy         1 XU3       1.204300
      9 C7          -1.3160     0.4440     2.0030 c          1 XU3       0.647100
     10 C8           3.7360    -0.7590     3.4810 ca         1 XU3      -0.290500
     11 O9           3.5360    -2.0790     1.3420 o          1 XU3      -0.607800
     12 O10          4.5240     0.1880     1.2820 o          1 XU3      -0.607800
     13 C11          3.8010     0.4200     4.2020 ca         1 XU3       0.107400
     14 C12          3.9680     0.3830     5.5750 ca         1 XU3      -0.140000
     15 C13          4.0720    -0.8320     6.2250 ca         1 XU3      -0.069000
     16 C14          4.0070    -2.0100     5.5050 ca         1 XU3      -0.149000
     17 C15          3.8340    -1.9730     4.1330 ca         1 XU3      -0.020000
     18 O16         -1.5110     1.5380     1.5160 o          1 XU3      -0.540100
     19 N17         -1.8550     0.1330     3.1980 ns         1 XU3      -0.553900
     20 C18         -2.6760     1.1160     3.9100 cx         1 XU3       0.028100
     21 C19         -3.5120     2.0170     3.0370 c2         1 XU3       0.458200
     22 N20         -3.8720     1.6260     1.8740 n2         1 XU3      -0.743100
     23 C21         -3.2580     0.7040     5.2640 cx         1 XU3      -0.136400
     24 C22         -2.1070     1.7110     5.1990 cx         1 XU3      -0.136400
     25 C24         -0.7860     0.4520    -0.9970 c          1 XU3       0.726100
     26 C25         -0.3870     0.2230    -2.4330 cx         1 XU3      -0.158700
     27 O26         -1.8120     1.0440    -0.7410 o          1 XU3      -0.526100
     28 C27          0.7540    -0.7380    -2.6450 cc         1 XU3      -0.003400
     29 C28          1.9970    -0.5650    -2.1960 cd         1 XU3      -0.177000
     30 C29          2.8800    -1.5840    -2.5140 cd         1 XU3      -0.155000
     31 C30          2.3520    -2.5840    -3.2230 cc         1 XU3       0.076300
     32 S31          0.6470    -2.2620    -3.5170 ss         1 XU3      -0.109800
     33 C33         -1.4970     0.2450    -3.4860 cx         1 XU3      -0.094900
     34 C34         -0.5040     1.4060    -3.3960 cx         1 XU3      -0.094900
     35 H2           1.8500     0.8910    -0.4880 h1         1 XU3       0.076700
     36 H2A          1.8500    -0.8910    -0.4880 h1         1 XU3       0.076700
     37 H3           1.8120     1.0000     1.9100 h1         1 XU3       0.130700
     38 H4           0.6160    -0.6690     3.1530 hc         1 XU3       0.069700
     39 H4A          1.0400    -1.9570     1.9900 hc         1 XU3       0.069700
     40 H5          -1.0450    -1.4670     1.0810 h1         1 XU3       0.074700
     41 H12          4.0190     1.3060     6.1400 ha         1 XU3       0.151000
     42 H13          4.2050    -0.8610     7.3000 ha         1 XU3       0.142000
     43 H14          4.0860    -2.9620     6.0160 ha         1 XU3       0.143000
     44 H15          3.7830    -2.8970     3.5690 ha         1 XU3       0.166000
     45 HN17        -1.7330    -0.7850     3.5780 hn         1 XU3       0.309500
     46 H21         -2.9910    -0.2900     5.6040 hc         1 XU3       0.079950
     47 H21A        -4.2300     1.1190     5.5010 hc         1 XU3       0.079950
     48 H22         -2.3760     2.7410     5.3970 hc         1 XU3       0.079950
     49 H22A        -1.1370     1.3330     5.5000 hc         1 XU3       0.079950
     50 H28          2.2950     0.3060    -1.6250 ha         1 XU3       0.170000
     51 H29          3.9200    -1.5700    -2.2110 ha         1 XU3       0.165000
     52 H33         -1.3580    -0.4250    -4.3260 hc         1 XU3       0.090450
     53 H33A        -2.4920     0.4520    -3.1120 hc         1 XU3       0.090450
     54 H34         -0.8930     2.3210    -2.9670 hc         1 XU3       0.090450
     55 H34A         0.2410     1.4450    -4.1810 hc         1 XU3       0.090450
     56 H19         -3.8090     2.9950     3.3960 h4         1 XU3      -0.035200
     57 HN20        -4.4270     2.2250     1.2940 hn         1 XU3       0.403400
@<TRIPOS>BOND
     1     7     1 1
     2    25     1 1
     3     1     2 1
     4    35     2 1
     5     4     2 1
     6     2    36 1
     7    13     3 1
     8     8     4 1
     9     6     4 1
    10     4    37 1
    11    31     5 1
    12     7     6 1
    13    39     6 1
    14     6    38 1
    15    40     7 1
    16     9     7 1
    17    12     8 2
    18     8    11 2
    19     8    10 1
    20    19     9 1
    21     9    18 2
    22    17    10 ar
    23    10    13 ar
    24    13    14 ar
    25    15    14 ar
    26    14    41 1
    27    16    15 ar
    28    15    42 1
    29    17    16 ar
    30    43    16 1
    31    44    17 1
    32    45    19 1
    33    20    19 1
    34    24    20 1
    35    20    21 1
    36    20    23 1
    37    22    21 2
    38    21    56 1
    39    22    57 1
    40    24    23 1
    41    23    46 1
    42    23    47 1
    43    48    24 1
    44    49    24 1
    45    27    25 2
    46    25    26 1
    47    34    26 1
    48    33    26 1
    49    26    28 1
    50    28    32 1
    51    28    29 2
    52    50    29 1
    53    29    30 1
    54    30    31 2
    55    30    51 1
    56    32    31 1
    57    53    33 1
    58    34    33 1
    59    33    52 1
    60    55    34 1
    61    34    54 1
@<TRIPOS>SUBSTRUCTURE
     1 XU3         1 TEMP              0 ****  ****    0 ROOT
