@<TRIPOS>MOLECULE
XU3
   57    61     1     0     0
SMALL
bcc


@<TRIPOS>ATOM
      1 N1           0.0000     0.0000     0.0000 n          1 XU3      -0.172800
      2 C2           1.4740     0.0000     0.0000 c3         1 XU3       0.042000
      3 Cl2          3.6710     1.9460     3.3840 cl         1 XU3       0.013600
      4 C3           1.8710     0.0000     1.4970 c3         1 XU3      -0.049900
      5 Cl3          3.2120    -3.9910    -3.7630 cl         1 XU3       0.061600
      6 C4           0.7770    -0.9130     2.1100 c3         1 XU3      -0.000400
      7 C5          -0.4710    -0.5680     1.2710 c3         1 XU3      -0.023300
      8 S6           3.5220    -0.7130     1.7320 sy         1 XU3       0.882300
      9 C7          -1.3160     0.4440     2.0030 c          1 XU3       0.529100
     10 C8           3.7360    -0.7590     3.4810 ca         1 XU3      -0.151500
     11 O9           3.5360    -2.0790     1.3420 o          1 XU3      -0.575300
     12 O10          4.5240     0.1880     1.2820 o          1 XU3      -0.575300
     13 C11          3.8010     0.4200     4.2020 ca         1 XU3       0.040400
     14 C12          3.9680     0.3830     5.5750 ca         1 XU3      -0.125000
     15 C13          4.0720    -0.8320     6.2250 ca         1 XU3      -0.039000
     16 C14          4.0070    -2.0100     5.5050 ca         1 XU3      -0.131000
     17 C15          3.8340    -1.9730     4.1330 ca         1 XU3       0.012000
     18 O16         -1.5110     1.5380     1.5160 o          1 XU3      -0.576100
     19 N17         -1.8550     0.1330     3.1980 ns         1 XU3      -0.157900
     20 C18         -2.6760     1.1160     3.9100 cx         1 XU3      -0.162900
     21 C19         -3.5120     2.0170     3.0370 c2         1 XU3       0.425200
     22 N20         -3.8720     1.6260     1.8740 n2         1 XU3      -0.590100
     23 C21         -3.2580     0.7040     5.2640 cx         1 XU3      -0.068400
     24 C22         -2.1070     1.7110     5.1990 cx         1 XU3      -0.068400
     25 C24         -0.7860     0.4520    -0.9970 c          1 XU3       0.657100
     26 C25         -0.3870     0.2230    -2.4330 cx         1 XU3      -0.153700
     27 O26         -1.8120     1.0440    -0.7410 o          1 XU3      -0.565100
     28 C27          0.7540    -0.7380    -2.6450 cc         1 XU3       0.049600
     29 C28          1.9970    -0.5650    -2.1960 cd         1 XU3      -0.176000
     30 C29          2.8800    -1.5840    -2.5140 cd         1 XU3      -0.121000
     31 C30          2.3520    -2.5840    -3.2230 cc         1 XU3       0.048300
     32 S31          0.6470    -2.2620    -3.5170 ss         1 XU3      -0.247800
     33 C33         -1.4970     0.2450    -3.4860 cx         1 XU3      -0.038900
     34 C34         -0.5040     1.4060    -3.3960 cx         1 XU3      -0.038900
     35 H2           1.8500     0.8910    -0.4880 h1         1 XU3       0.064700
     36 H2A          1.8500    -0.8910    -0.4880 h1         1 XU3       0.064700
     37 H3           1.8120     1.0000     1.9100 h1         1 XU3       0.098700
     38 H4           1.0400    -1.9570     1.9900 hc         1 XU3       0.038700
     39 H4A          0.6160    -0.6690     3.1530 hc         1 XU3       0.038700
     40 H5          -1.0450    -1.4670     1.0810 h1         1 XU3       0.041700
     41 H12          4.0190     1.3060     6.1400 ha         1 XU3       0.121000
     42 H13          4.2050    -0.8610     7.3000 ha         1 XU3       0.107000
     43 H14          4.0860    -2.9620     6.0160 ha         1 XU3       0.113000
     44 H15          3.7830    -2.8970     3.5690 ha         1 XU3       0.135000
     45 HN17        -1.7310    -0.7850     3.5790 hn         1 XU3       0.171500
     46 H21         -2.9910    -0.2900     5.6040 hc         1 XU3       0.050200
     47 H21A        -4.2300     1.1190     5.5010 hc         1 XU3       0.050200
     48 H22         -1.1370     1.3330     5.5000 hc         1 XU3       0.050200
     49 H22A        -2.3760     2.7410     5.3970 hc         1 XU3       0.050200
     50 H28          2.2950     0.3060    -1.6250 ha         1 XU3       0.163000
     51 H29          3.9200    -1.5700    -2.2110 ha         1 XU3       0.139000
     52 H33         -2.4920     0.4520    -3.1120 hc         1 XU3       0.059450
     53 H33A        -1.3580    -0.4250    -4.3260 hc         1 XU3       0.059450
     54 H34          0.2410     1.4450    -4.1810 hc         1 XU3       0.059450
     55 H34A        -0.8930     2.3210    -2.9670 hc         1 XU3       0.059450
     56 H19         -3.8090     2.9950     3.3960 h4         1 XU3      -0.007200
     57 HN20        -3.5980     0.7230     1.5420 hn         1 XU3       0.322400
@<TRIPOS>BOND
     1     1     2 1   
     2     1     7 1   
     3     1    25 1   
     4     2     4 1   
     5     2    35 1   
     6     2    36 1   
     7     3    13 1   
     8     4     6 1   
     9     4     8 1   
    10     4    37 1   
    11     5    31 1   
    12     6     7 1   
    13     6    38 1   
    14     6    39 1   
    15     7     9 1   
    16     7    40 1   
    17     8    10 1   
    18     8    11 2   
    19     8    12 2   
    20     9    18 2   
    21     9    19 1   
    22    10    13 ar  
    23    10    17 ar  
    24    13    14 ar  
    25    14    15 ar  
    26    14    41 1   
    27    15    16 ar  
    28    15    42 1   
    29    16    17 ar  
    30    16    43 1   
    31    17    44 1   
    32    19    20 1   
    33    19    45 1   
    34    20    21 1   
    35    20    23 1   
    36    20    24 1   
    37    21    22 2   
    38    21    56 1   
    39    22    57 1   
    40    23    24 1   
    41    23    46 1   
    42    23    47 1   
    43    24    48 1   
    44    24    49 1   
    45    25    26 1   
    46    25    27 2   
    47    26    28 1   
    48    26    33 1   
    49    26    34 1   
    50    28    29 2   
    51    28    32 1   
    52    29    30 1   
    53    29    50 1   
    54    30    31 2   
    55    30    51 1   
    56    31    32 1   
    57    33    34 1   
    58    33    52 1   
    59    33    53 1   
    60    34    54 1   
    61    34    55 1   
@<TRIPOS>SUBSTRUCTURE
     1 XU3         1 TEMP              0 ****  ****    0 ROOT
