@<TRIPOS>MOLECULE
XU5
   63    67     1     0     0
SMALL
bcc


@<TRIPOS>ATOM
      1 Cl           0.0000     0.0000     0.0000 cl         1 XU5       0.014600
      2 C1           0.8690     3.8030     3.8490 c3         1 XU5      -0.033300
      3 C2           0.5530     4.8810     2.8450 c          1 XU5       0.551100
      4 N3           1.5480     5.6230     2.3190 ns         1 XU5      -0.149900
      5 C4           1.2410     6.6710     1.3430 cx         1 XU5      -0.164900
      6 C5          -0.0640     7.3950     1.5540 c2         1 XU5       0.422200
      7 O6          -0.5950     5.0800     2.5100 o          1 XU5      -0.608100
      8 C7           2.4130     7.4790     0.7810 cx         1 XU5      -0.067400
      9 C8           1.7000     6.4500    -0.0990 cx         1 XU5      -0.067400
     10 N9          -0.5770     7.4610     2.7240 n2         1 XU5      -0.593100
     11 N10         -0.3710     3.1370     4.2740 n          1 XU5      -0.144800
     12 C11         -0.2730     1.7030     3.9450 c3         1 XU5       0.069000
     13 C12          0.7530     1.6300     2.7870 c3         1 XU5      -0.044900
     14 C13          1.7670     2.7280     3.2020 c3         1 XU5      -0.004400
     15 C15          2.4280     0.0000     1.1970 ca         1 XU5      -0.153500
     16 C16          1.7360     0.0000     0.0000 ca         1 XU5       0.042400
     17 C17          2.4280     0.0000    -1.1980 ca         1 XU5      -0.125000
     18 C18          3.8090     0.0010    -1.1980 ca         1 XU5      -0.038000
     19 C19          4.5020     0.0010    -0.0000 ca         1 XU5      -0.131000
     20 C20          3.8110     0.0050     1.1970 ca         1 XU5       0.012000
     21 O22          2.5630    -0.0980     3.7140 o          1 XU5      -0.574800
     22 O23          0.5750    -1.0230     2.5680 o          1 XU5      -0.574800
     23 O25         -1.3860     4.9250     5.1090 o          1 XU5      -0.612100
     24 C26         -3.9850     3.3850     4.6480 cx         1 XU5      -0.059400
     25 C27         -2.6440     2.9320     5.2290 cx         1 XU5      -0.156700
     26 C28         -3.3100     2.1190     4.1160 cx         1 XU5      -0.059400
     27 C29         -3.6290     2.1820     8.7950 ca         1 XU5      -0.096500
     28 C30         -2.6570     1.2700     9.1630 ca         1 XU5      -0.089300
     29 C31         -1.6820     0.8950     8.2590 ca         1 XU5      -0.096500
     30 C32         -1.6780     1.4330     6.9850 ca         1 XU5      -0.097000
     31 C33         -2.6490     2.3450     6.6160 ca         1 XU5      -0.048300
     32 C34         -3.6250     2.7200     7.5210 ca         1 XU5      -0.097000
     33 H1           1.3690     4.2290     4.7100 h1         1 XU5       0.050700
     34 HN3          2.4900     5.4870     2.6270 hn         1 XU5       0.172500
     35 H5          -0.5680     7.8590     0.7150 h4         1 XU5      -0.008200
     36 H7           3.3930     7.1890     1.1380 hc         1 XU5       0.050450
     37 H7A          2.1990     8.5160     0.5540 hc         1 XU5       0.050450
     38 H8           1.0510     6.8590    -0.8640 hc         1 XU5       0.050450
     39 H8A          2.2450     5.5310    -0.2800 hc         1 XU5       0.050450
     40 HN9         -0.1120     7.0320     3.5000 hn         1 XU5       0.329400
     41 H11         -1.2350     1.3260     3.6180 h1         1 XU5       0.043700
     42 H11A         0.0860     1.1450     4.8010 h1         1 XU5       0.043700
     43 H12          0.2840     1.8770     1.8420 h1         1 XU5       0.094700
     44 H13          2.4760     2.3400     3.9220 hc         1 XU5       0.041200
     45 H13A         2.2730     3.1280     2.3320 hc         1 XU5       0.041200
     46 H17          1.8860     0.0000    -2.1370 ha         1 XU5       0.121000
     47 H18          4.3510    -0.0010    -2.1360 ha         1 XU5       0.107000
     48 H19          5.5850     0.0030    -0.0010 ha         1 XU5       0.112000
     49 H20          4.3530     0.0050     2.1350 ha         1 XU5       0.134000
     50 H26         -4.8480     3.2230     5.2820 hc         1 XU5       0.056450
     51 H26A        -3.9440     4.2470     3.9930 hc         1 XU5       0.056450
     52 H28         -3.7600     1.1840     4.4250 hc         1 XU5       0.056450
     53 H28A        -2.8560     2.2080     3.1360 hc         1 XU5       0.056450
     54 H29         -4.3930     2.4760     9.5050 ha         1 XU5       0.106500
     55 H31         -0.9210     0.1810     8.5480 ha         1 XU5       0.106500
     56 H32         -0.9130     1.1400     6.2760 ha         1 XU5       0.111000
     57 H34         -4.3860     3.4350     7.2320 ha         1 XU5       0.111000
     58 H35         -3.0130    -0.3400    10.5100 hc         1 XU5       0.007367
     59 H35A        -1.6580     0.7060    10.9570 hc         1 XU5       0.007367
     60 H35B        -3.3200     1.2650    11.1870 hc         1 XU5       0.007367
     61 S14          1.5480     0.0010     2.7240 sy         1 XU5       0.883300
     62 C24         -1.4220     3.7370     4.8670 c          1 XU5       0.664100
     63 C35         -2.6620     0.6840    10.5520 c3         1 XU5       0.064200
@<TRIPOS>BOND
     1     1    16 1   
     2     2     3 1   
     3     2    11 1   
     4     2    14 1   
     5     2    33 1   
     6     3     4 1   
     7     3     7 2   
     8     4     5 1   
     9     4    34 1   
    10     5     6 1   
    11     5     8 1   
    12     5     9 1   
    13     6    10 2   
    14     6    35 1   
    15     8     9 1   
    16     8    36 1   
    17     8    37 1   
    18     9    38 1   
    19     9    39 1   
    20    10    40 1   
    21    11    12 1   
    22    11    62 1   
    23    12    13 1   
    24    12    41 1   
    25    12    42 1   
    26    13    14 1   
    27    13    43 1   
    28    13    61 1   
    29    14    44 1   
    30    14    45 1   
    31    15    16 ar  
    32    15    20 ar  
    33    15    61 1   
    34    16    17 ar  
    35    17    18 ar  
    36    17    46 1   
    37    18    19 ar  
    38    18    47 1   
    39    19    20 ar  
    40    19    48 1   
    41    20    49 1   
    42    21    61 2   
    43    22    61 2   
    44    23    62 2   
    45    24    25 1   
    46    24    26 1   
    47    24    50 1   
    48    24    51 1   
    49    25    26 1   
    50    25    31 1   
    51    25    62 1   
    52    26    52 1   
    53    26    53 1   
    54    27    28 ar  
    55    27    32 ar  
    56    27    54 1   
    57    28    29 ar  
    58    28    63 1   
    59    29    30 ar  
    60    29    55 1   
    61    30    31 ar  
    62    30    56 1   
    63    31    32 ar  
    64    32    57 1   
    65    58    63 1   
    66    59    63 1   
    67    60    63 1   
@<TRIPOS>SUBSTRUCTURE
     1 XU5         1 TEMP              0 ****  ****    0 ROOT
