@<TRIPOS>MOLECULE
molecule
   63    67     1     0     0
SMALL
bcc


@<TRIPOS>ATOM
      1 Cl           0.0000     0.0000     0.0000 cl         1 XU5      -0.077400
      2 C1           0.8690     3.8030     3.8490 c3         1 XU5       0.053700
      3 C2           0.5530     4.8810     2.8450 c          1 XU5       0.664100
      4 N3           1.5480     5.6230     2.3190 ns         1 XU5      -0.549900
      5 C4           1.2410     6.6710     1.3430 cx         1 XU5       0.027100
      6 C5          -0.0640     7.3950     1.5540 c2         1 XU5       0.455200
      7 O6          -0.5950     5.0800     2.5100 o          1 XU5      -0.567100
      8 C7           2.4130     7.4790     0.7810 cx         1 XU5      -0.136400
      9 C8           1.7000     6.4500    -0.0990 cx         1 XU5      -0.136400
     10 N9          -0.5770     7.4610     2.7240 n2         1 XU5      -0.739100
     11 N10         -0.3710     3.1370     4.2740 n          1 XU5      -0.474800
     12 C11         -0.2730     1.7030     3.9450 c3         1 XU5       0.129000
     13 C12          0.7530     1.6300     2.7870 c3         1 XU5      -0.218900
     14 C13          1.7670     2.7280     3.2020 c3         1 XU5      -0.068400
     15 C15          2.4280     0.0000     1.1970 ca         1 XU5      -0.291500
     16 C16          1.7360     0.0000     0.0000 ca         1 XU5       0.109400
     17 C17          2.4280     0.0000    -1.1980 ca         1 XU5      -0.139000
     18 C18          3.8090     0.0010    -1.1980 ca         1 XU5      -0.067000
     19 C19          4.5020     0.0010    -0.0000 ca         1 XU5      -0.149000
     20 C20          3.8110     0.0050     1.1970 ca         1 XU5      -0.021000
     21 O22          2.5630    -0.0980     3.7140 o          1 XU5      -0.607800
     22 O23          0.5750    -1.0230     2.5680 o          1 XU5      -0.607800
     23 O25         -1.3860     4.9250     5.1090 o          1 XU5      -0.557100
     24 C26         -3.9850     3.3850     4.6480 cx         1 XU5      -0.111900
     25 C27         -2.6440     2.9320     5.2290 cx         1 XU5      -0.162700
     26 C28         -3.3100     2.1190     4.1160 cx         1 XU5      -0.111900
     27 C29         -3.6290     2.1820     8.7950 ca         1 XU5      -0.126000
     28 C30         -2.6570     1.2700     9.1630 ca         1 XU5      -0.080300
     29 C31         -1.6820     0.8950     8.2590 ca         1 XU5      -0.126000
     30 C32         -1.6780     1.4330     6.9850 ca         1 XU5      -0.114000
     31 C33         -2.6490     2.3450     6.6160 ca         1 XU5      -0.049300
     32 C34         -3.6250     2.7200     7.5210 ca         1 XU5      -0.114000
     33 H1           1.3690     4.2290     4.7100 h1         1 XU5       0.084700
     34 HN3          2.4890     5.4910     2.6310 hn         1 XU5       0.312500
     35 H5          -0.5680     7.8590     0.7150 h4         1 XU5      -0.036200
     36 H7           3.3930     7.1890     1.1380 hc         1 XU5       0.080450
     37 H7A          2.1990     8.5160     0.5540 hc         1 XU5       0.080450
     38 H8           1.0510     6.8590    -0.8640 hc         1 XU5       0.080450
     39 H8A          2.2450     5.5310    -0.2800 hc         1 XU5       0.080450
     40 HN9         -1.4440     7.9410     2.8640 hn         1 XU5       0.403400
     41 H11         -1.2350     1.3260     3.6180 h1         1 XU5       0.064700
     42 H11A         0.0860     1.1450     4.8010 h1         1 XU5       0.064700
     43 H12          0.2840     1.8770     1.8420 h1         1 XU5       0.127700
     44 H13          2.2730     3.1280     2.3320 hc         1 XU5       0.072200
     45 H13A         2.4760     2.3400     3.9220 hc         1 XU5       0.072200
     46 H17          1.8860     0.0000    -2.1370 ha         1 XU5       0.152000
     47 H18          4.3510    -0.0010    -2.1360 ha         1 XU5       0.142000
     48 H19          5.5850     0.0030    -0.0010 ha         1 XU5       0.143000
     49 H20          4.3530     0.0050     2.1350 ha         1 XU5       0.165000
     50 H26         -4.8480     3.2230     5.2820 hc         1 XU5       0.085450
     51 H26A        -3.9440     4.2470     3.9930 hc         1 XU5       0.085450
     52 H28         -3.7600     1.1840     4.4250 hc         1 XU5       0.085450
     53 H28A        -2.8560     2.2080     3.1360 hc         1 XU5       0.085450
     54 H29         -4.3930     2.4760     9.5050 ha         1 XU5       0.132000
     55 H31         -0.9210     0.1810     8.5480 ha         1 XU5       0.132000
     56 H32         -0.9130     1.1400     6.2760 ha         1 XU5       0.132000
     57 H34         -4.3860     3.4350     7.2320 ha         1 XU5       0.132000
     58 H35         -1.6580     0.7060    10.9570 hc         1 XU5       0.043367
     59 H35A        -3.3210     1.2640    11.1860 hc         1 XU5       0.043367
     60 H35B        -3.0120    -0.3410    10.5100 hc         1 XU5       0.043367
     61 S14          1.5480     0.0010     2.7240 sy         1 XU5       1.203300
     62 C24         -1.4220     3.7370     4.8670 c          1 XU5       0.726100
     63 C35         -2.6620     0.6840    10.5520 c3         1 XU5      -0.048800
@<TRIPOS>BOND
     1     1    16 1
     2     2     3 1
     3     2    11 1
     4     2    14 1
     5     3     4 1
     6     3     7 2
     7     4     5 1
     8     5     6 1
     9     5     8 1
    10     5     9 1
    11     6    10 2
    12     8     9 1
    13    11    12 1
    14    11    62 1
    15    12    13 1
    16    13    14 1
    17    13    61 1
    18    61    15 1
    19    61    21 2
    20    61    22 2
    21    15    16 ar
    22    15    20 ar
    23    16    17 ar
    24    17    18 ar
    25    18    19 ar
    26    19    20 ar
    27    62    23 2
    28    62    25 1
    29    24    25 1
    30    24    26 1
    31    25    26 1
    32    25    31 1
    33    27    28 ar
    34    27    32 ar
    35    28    29 ar
    36    28    63 1
    37    29    30 ar
    38    30    31 ar
    39    31    32 ar
    40     2    33 1
    41     4    34 1
    42     6    35 1
    43     8    36 1
    44     8    37 1
    45     9    38 1
    46     9    39 1
    47    10    40 1
    48    12    41 1
    49    12    42 1
    50    13    43 1
    51    14    44 1
    52    14    45 1
    53    17    46 1
    54    18    47 1
    55    19    48 1
    56    20    49 1
    57    24    50 1
    58    24    51 1
    59    26    52 1
    60    26    53 1
    61    27    54 1
    62    29    55 1
    63    30    56 1
    64    32    57 1
    65    63    58 1
    66    63    59 1
    67    63    60 1
@<TRIPOS>SUBSTRUCTURE
     1 XU5         1 TEMP              0 ****  ****    0 ROOT
