@<TRIPOS>MOLECULE
molecule
   31    33     1     0     0
SMALL
bcc


@<TRIPOS>ATOM
      1 CAA          0.0000     0.0000     0.0000 ca         1 XV1      -0.102300
      2 CAB         -0.7430    -0.0000    -1.3110 c3         1 XV1       0.023200
      3 CAC          1.3660     0.0000     0.0000 ca         1 XV1       0.082800
      4 CAD         -0.8820    -1.4160    -1.8090 ca         1 XV1      -0.122300
      5 CAE          2.0640     0.0000     1.2260 ca         1 XV1       0.380600
      6 CAF         -0.7170     0.0070     1.1940 ca         1 XV1      -0.100000
      7 NAG          3.3990    -0.0000     1.2600 nb         1 XV1      -0.675000
      8 CAH         -2.0700    -2.0980    -1.6260 ca         1 XV1      -0.100000
      9 CAI          1.3280     0.0010     2.4370 ca         1 XV1      -0.140300
     10 CAJ         -0.0760     0.0080     2.3960 ca         1 XV1      -0.128000
     11 OAK          2.0480    -0.0020    -1.1750 oh         1 XV1      -0.485100
     12 CAL          0.1760    -2.0320    -2.4540 ca         1 XV1       0.149900
     13 CAM          4.0530     0.0010     2.3960 ca         1 XV1       0.428200
     14 CAN         -2.1990    -3.3970    -2.0820 ca         1 XV1      -0.148000
     15 CAO          2.0250     0.0020     3.6590 ca         1 XV1      -0.081000
     16 CAP          0.0460    -3.3310    -2.9110 ca         1 XV1      -0.170000
     17 CAQ          3.3910     0.0020     3.6210 ca         1 XV1      -0.253300
     18 CAR         -1.1410    -4.0150    -2.7220 ca         1 XV1      -0.104000
     19 FAS          1.3360    -1.3630    -2.6390 f          1 XV1      -0.113900
     20 HAB         -1.7260     0.4310    -1.1690 hc         1 XV1       0.061200
     21 HABA        -0.1930     0.5850    -2.0380 hc         1 XV1       0.061200
     22 HAF         -1.8000     0.0130     1.1660 ha         1 XV1       0.134000
     23 HAH         -2.9000    -1.6150    -1.1250 ha         1 XV1       0.132000
     24 HAJ         -0.6470     0.0130     3.3170 ha         1 XV1       0.135000
     25 HOAK         2.5430     0.7970    -1.2520 ho         1 XV1       0.424000
     26 HAM          5.1360     0.0010     2.3820 h4         1 XV1       0.024100
     27 HAN         -3.1300    -3.9320    -1.9360 ha         1 XV1       0.131000
     28 HAO          1.4940     0.0020     4.6030 ha         1 XV1       0.140000
     29 HAP          0.8750    -3.8140    -3.4140 ha         1 XV1       0.145000
     30 HAQ          3.9590     0.0020     4.5440 ha         1 XV1       0.137000
     31 HAR         -1.2430    -5.0320    -3.0780 ha         1 XV1       0.134000
@<TRIPOS>BOND
     1     1     2 1
     2     1     3 ar
     3     1     6 ar
     4     2     4 1
     5     3     5 ar
     6     3    11 1
     7     4     8 ar
     8     4    12 ar
     9     5     7 ar
    10     5     9 ar
    11     6    10 ar
    12     7    13 ar
    13     8    14 ar
    14     9    10 ar
    15     9    15 ar
    16    12    16 ar
    17    12    19 1
    18    13    17 ar
    19    14    18 ar
    20    15    17 ar
    21    16    18 ar
    22     2    20 1
    23     2    21 1
    24     6    22 1
    25     8    23 1
    26    10    24 1
    27    11    25 1
    28    13    26 1
    29    14    27 1
    30    15    28 1
    31    16    29 1
    32    17    30 1
    33    18    31 1
@<TRIPOS>SUBSTRUCTURE
     1 XV1         1 TEMP              0 ****  ****    0 ROOT
