@<TRIPOS>MOLECULE
XV1
   31    33     1     0     0
SMALL
bcc


@<TRIPOS>ATOM
      1 CAA         1.3870   -1.1410   -0.4400 ca        1 XV1     -0.110300
      2 CAB         1.0200   -1.4050   -1.8610 c3        1 XV1      0.016200
      3 CAC         1.4040    0.1520    0.0740 ca        1 XV1      0.093800
      4 CAD        -0.4150   -1.7780   -2.0160 ca        1 XV1     -0.105300
      5 CAE         1.7890    0.3990    1.4400 ca        1 XV1      0.334600
      6 CAF         1.7390   -2.2260    0.3960 ca        1 XV1     -0.082000
      7 NAG         1.8120    1.6910    1.9340 nb        1 XV1     -0.677000
      8 CAH        -1.3990   -0.7840   -2.0270 ca        1 XV1     -0.097000
      9 CAI         2.1400   -0.7230    2.2490 ca        1 XV1     -0.113300
     10 CAJ         2.1060   -2.0280    1.7050 ca        1 XV1     -0.149000
     11 OAK         1.0330    1.1630   -0.7790 oh        1 XV1     -0.503100
     12 CAL        -0.8120   -3.1240   -2.1700 ca        1 XV1      0.120900
     13 CAM         2.1700    1.8680    3.1920 ca        1 XV1      0.413200
     14 CAN        -2.7430   -1.1090   -2.1920 ca        1 XV1     -0.144000
     15 CAO         2.5190   -0.4790    3.6030 ca        1 XV1     -0.082000
     16 CAP        -2.1710   -3.4530   -2.3390 ca        1 XV1     -0.166000
     17 CAQ         2.5360    0.8060    4.0800 ca        1 XV1     -0.243300
     18 CAR        -3.1260   -2.4420   -2.3490 ca        1 XV1     -0.109000
     19 FAS         0.1100   -4.1190   -2.1590 f         1 XV1     -0.146900
     20 HAB         1.2260   -0.4840   -2.4760 hc        1 XV1      0.069700
     21 HABA        1.6700   -2.2310   -2.2610 hc        1 XV1      0.069700
     22 HAF         1.7060   -3.2420   -0.0320 ha        1 XV1      0.146000
     23 HAH        -1.0890    0.2660   -1.8940 ha        1 XV1      0.152000
     24 HAJ         2.3770   -2.8790    2.3480 ha        1 XV1      0.138000
     25 HOAK        1.1490    2.0160   -0.3340 ho        1 XV1      0.446000
     26 HAM         2.1770    2.9120    3.5560 h4        1 XV1      0.023100
     27 HAN        -3.5020   -0.3140   -2.1970 ha        1 XV1      0.136000
     28 HAO         2.7920   -1.3340    4.2390 ha        1 XV1      0.142000
     29 HAP        -2.4610   -4.5060   -2.4610 ha        1 XV1      0.146000
     30 HAQ         2.8200    1.0420    5.1140 ha        1 XV1      0.146000
     31 HAR        -4.1880   -2.6980   -2.4800 ha        1 XV1      0.135000
@<TRIPOS>BOND
     1    1    2 1   
     2    1    3 ar  
     3    1    6 ar  
     4    2    4 1   
     5    2   20 1   
     6    2   21 1   
     7    3    5 ar  
     8    3   11 1   
     9    4    8 ar  
    10    4   12 ar  
    11    5    7 ar  
    12    5    9 ar  
    13    6   10 ar  
    14    6   22 1   
    15    7   13 ar  
    16    8   14 ar  
    17    8   23 1   
    18    9   10 ar  
    19    9   15 ar  
    20   10   24 1   
    21   11   25 1   
    22   12   16 ar  
    23   12   19 1   
    24   13   17 ar  
    25   13   26 1   
    26   14   18 ar  
    27   14   27 1   
    28   15   17 ar  
    29   15   28 1   
    30   16   18 ar  
    31   16   29 1   
    32   17   30 1   
    33   18   31 1   
@<TRIPOS>SUBSTRUCTURE
     1 XV1         1 TEMP              0 ****  ****    0 ROOT
