@<TRIPOS>MOLECULE
XVE
   41    42     1     0     0
SMALL
bcc


@<TRIPOS>ATOM
      1 C91          0.0000     0.0000     0.0000 c3         1 XVE      -0.039000
      2 Cl           1.8030     0.0000     0.0000 cl         1 XVE      -0.082400
      3 C1          -1.9850     0.0000     1.6950 c3         1 XVE      -0.058300
      4 C2          -2.5540     1.3940     1.4230 c3         1 XVE       0.030900
      5 N3          -2.2210    -0.3580     3.0960 ns         1 XVE      -0.150900
      6 C92         -0.5030     0.0000     1.4210 c          1 XVE       0.573100
      7 C5          -4.0520     1.3650     1.5780 ca         1 XVE      -0.105300
      8 C6          -2.2850    -1.6550     3.4580 c          1 XVE       0.687100
      9 O8           0.2820    -0.0010     2.3390 o          1 XVE      -0.519100
     10 C9          -4.6230     1.6250     2.8100 ca         1 XVE      -0.093500
     11 C10         -4.8550     1.0830     0.4890 ca         1 XVE      -0.093500
     12 O11         -2.5030    -1.9840     4.7450 os         1 XVE      -0.416900
     13 O12         -2.1470    -2.5260     2.6230 o          1 XVE      -0.667000
     14 C14         -5.9990     1.5990     2.9530 ca         1 XVE      -0.093000
     15 C15         -6.2290     1.0560     0.6320 ca         1 XVE      -0.093000
     16 C16         -2.5600    -3.4000     5.0630 c3         1 XVE       0.302700
     17 C17         -6.8010     1.3110     1.8650 ca         1 XVE      -0.095000
     18 C18         -2.8100    -3.5730     6.5390 ca         1 XVE      -0.120300
     19 C19         -4.1040    -3.6510     7.0180 ca         1 XVE      -0.074000
     20 C20         -1.7430    -3.6620     7.4140 ca         1 XVE      -0.074000
     21 C21         -4.3320    -3.8100     8.3710 ca         1 XVE      -0.107500
     22 C22         -1.9720    -3.8220     8.7680 ca         1 XVE      -0.107500
     23 C23         -3.2670    -3.8940     9.2470 ca         1 XVE      -0.090000
     24 H911        -0.3610     0.8840    -0.5110 h1         1 XVE       0.044200
     25 H912        -0.3610    -0.8850    -0.5110 h1         1 XVE       0.044200
     26 H1          -2.4720    -0.7210     1.0500 h1         1 XVE       0.077700
     27 H21C        -2.1310     2.1010     2.1270 hc         1 XVE       0.029700
     28 H22C        -2.3020     1.6960     0.4130 hc         1 XVE       0.029700
     29 H3          -2.2780     0.3590     3.7930 hn         1 XVE       0.184500
     30 H9          -3.9940     1.8510     3.6630 ha         1 XVE       0.104500
     31 H10         -4.4070     0.8830    -0.4770 ha         1 XVE       0.104500
     32 H14         -6.4470     1.8000     3.9180 ha         1 XVE       0.105000
     33 H15         -6.8580     0.8330    -0.2210 ha         1 XVE       0.105000
     34 H161        -3.3640    -3.8640     4.5040 h1         1 XVE       0.015200
     35 H162        -1.6200    -3.8680     4.7980 h1         1 XVE       0.015200
     36 H17         -7.8780     1.2900     1.9770 ha         1 XVE       0.104000
     37 H19         -4.9400    -3.5850     6.3320 ha         1 XVE       0.107500
     38 H20         -0.7280    -3.6060     7.0390 ha         1 XVE       0.107500
     39 H21         -5.3470    -3.8680     8.7460 ha         1 XVE       0.103500
     40 H22         -1.1360    -3.8890     9.4540 ha         1 XVE       0.103500
     41 H23         -3.4460    -4.0190    10.3080 ha         1 XVE       0.102000
@<TRIPOS>BOND
     1     1     2 1   
     2     1     6 1   
     3     1    24 1   
     4     1    25 1   
     5     3     4 1   
     6     3     5 1   
     7     3     6 1   
     8     3    26 1   
     9     4     7 1   
    10     4    27 1   
    11     4    28 1   
    12     5     8 1   
    13     5    29 1   
    14     6     9 2   
    15     7    10 ar  
    16     7    11 ar  
    17     8    12 1   
    18     8    13 2   
    19    10    14 ar  
    20    10    30 1   
    21    11    15 ar  
    22    11    31 1   
    23    12    16 1   
    24    14    17 ar  
    25    14    32 1   
    26    15    17 ar  
    27    15    33 1   
    28    16    18 1   
    29    16    34 1   
    30    16    35 1   
    31    17    36 1   
    32    18    19 ar  
    33    18    20 ar  
    34    19    21 ar  
    35    19    37 1   
    36    20    22 ar  
    37    20    38 1   
    38    21    23 ar  
    39    21    39 1   
    40    22    23 ar  
    41    22    40 1   
    42    23    41 1   
@<TRIPOS>SUBSTRUCTURE
     1 XVE         1 TEMP              0 ****  ****    0 ROOT
