@<TRIPOS>MOLECULE
XWG
   67    72     1     0     0
SMALL
bcc


@<TRIPOS>ATOM
      1 CL1         0.7680    0.6680    1.1220 cl        1 XWG      0.000600
      2 C25         2.3600    0.2620    0.8330 cc        1 XWG     -0.023700
      3 C24         3.1790   -0.4280    1.7180 cd        1 XWG     -0.158000
      4 C22         4.4780   -0.6190    1.1790 cd        1 XWG     -0.105000
      5 S1          3.1620    0.6490   -0.5840 ss        1 XWG      0.130200
      6 C20         4.5970   -0.0690   -0.0940 cc        1 XWG     -0.213600
      7 C17         5.7650   -0.1000   -0.9010 cc        1 XWG      0.379200
      8 C16         6.0450    0.1430   -2.2360 cd        1 XWG     -0.347600
      9 O10         6.9910   -0.4620   -0.2700 os        1 XWG     -0.135100
     10 N9          7.9700   -0.4540   -1.1520 nc        1 XWG     -0.391300
     11 C4          7.4810   -0.0930   -2.3550 cd        1 XWG      0.342600
     12 C1          8.2500    0.0140   -3.6400 c3        1 XWG      0.158200
     13 N3          8.8380   -1.2900   -3.9850 n3        1 XWG     -0.696600
     14 C7         10.3130   -1.1780   -4.0040 c3        1 XWG      0.174500
     15 C14        10.8350   -1.6160   -5.3870 c3        1 XWG     -0.091400
     16 C15         9.6120   -2.0390   -6.1890 c3        1 XWG     -0.100400
     17 C8          8.4010   -1.8620   -5.2590 c3        1 XWG      0.149800
     18 C5         10.7070    0.2630   -3.6430 c3        1 XWG     -0.148700
     19 C2          9.3860    1.0690   -3.5590 c3        1 XWG     -0.154700
     20 C6          9.4570    1.8070   -2.2250 c         1 XWG      0.718500
     21 O13         8.7010    2.6870   -1.8110 o         1 XWG     -0.557500
     22 C11        11.3060    0.3740   -2.2430 c         1 XWG      0.720500
     23 O18        12.2570   -0.2670   -1.7780 o         1 XWG     -0.616500
     24 N12        10.6010    1.3570   -1.5150 n         1 XWG     -0.511400
     25 C19        10.8540    1.6440   -0.1330 c3        1 XWG      0.110000
     26 C21        10.4430    0.5030    0.8120 c3        1 XWG     -0.133400
     27 C23        11.3370    0.5210    2.0430 c3        1 XWG      0.117800
     28 N29        11.2330   -0.7110    2.8930 n4        1 XWG     -0.599800
     29 C34        11.6400   -1.9450    2.1380 c3        1 XWG      0.113800
     30 C35        12.8710   -1.8220    1.2330 c3        1 XWG      0.104400
     31 O36        13.9340   -1.2700    1.9880 oh        1 XWG     -0.630800
     32 C31         9.8220   -0.8880    3.4200 c3        1 XWG      0.112800
     33 C33         9.9130   -1.4290    4.8480 c3        1 XWG     -0.102400
     34 C32        11.3510   -1.2210    5.3020 c3        1 XWG     -0.102400
     35 C30        12.0890   -0.5570    4.1380 c3        1 XWG      0.112800
     36 H24         2.8710   -0.7860    2.7030 ha        1 XWG      0.174000
     37 H22         5.2810   -1.1430    1.7010 ha        1 XWG      0.158000
     38 H16         5.3740    0.4410   -3.0350 ha        1 XWG      0.185000
     39 H1          7.5090    0.3550   -4.4250 h1        1 XWG      0.080700
     40 H7         10.7040   -1.8840   -3.2160 h1        1 XWG      0.088700
     41 H82         7.9490   -2.8640   -5.0150 h1        1 XWG      0.059200
     42 H81         7.6070   -1.2450   -5.7620 h1        1 XWG      0.059200
     43 H5         11.4280    0.7000   -4.3780 hc        1 XWG      0.112700
     44 H2          9.2860    1.8130   -4.3870 hc        1 XWG      0.111700
     45 H141       11.3810   -0.7870   -5.9000 hc        1 XWG      0.059200
     46 H142       11.5500   -2.4670   -5.2670 hc        1 XWG      0.059200
     47 H151        9.4970   -1.4090   -7.1060 hc        1 XWG      0.060700
     48 H152        9.6950   -3.1030   -6.5180 hc        1 XWG      0.060700
     49 H191       11.9600    1.8420   -0.0250 h1        1 XWG      0.077200
     50 H192       10.2870    2.5790    0.1400 h1        1 XWG      0.077200
     51 H211       10.5320   -0.4800    0.2740 hc        1 XWG      0.081200
     52 H212        9.3660    0.6240    1.1020 hc        1 XWG      0.081200
     53 H231       11.0660    1.4070    2.6870 hx        1 XWG      0.101700
     54 H232       12.4240    0.6160    1.7460 hx        1 XWG      0.101700
     55 H341       10.7800   -2.2580    1.4770 hx        1 XWG      0.101200
     56 H342       11.8190   -2.7480    2.9090 hx        1 XWG      0.101200
     57 H311        9.3150    0.1170    3.4140 hx        1 XWG      0.107950
     58 H312        9.2430   -1.5750    2.7460 hx        1 XWG      0.107950
     59 H301       13.1000   -1.0190    3.9590 hx        1 XWG      0.107950
     60 H302       12.2330    0.5410    4.3380 hx        1 XWG      0.107950
     61 H351       12.6600   -1.1740    0.3360 h1        1 XWG      0.079200
     62 H352       13.1280   -2.8600    0.8840 h1        1 XWG      0.079200
     63 H36        14.7370   -1.3580    1.4570 ho        1 XWG      0.443000
     64 H331        9.6380   -2.5140    4.8760 hc        1 XWG      0.086700
     65 H332        9.1930   -0.8810    5.5080 hc        1 XWG      0.086700
     66 H321       11.4030   -0.5650    6.2070 hc        1 XWG      0.086700
     67 H322       11.8330   -2.1970    5.5640 hc        1 XWG      0.086700
@<TRIPOS>BOND
     1    1    2 1
     2    2    3 2
     3    2    5 1
     4    3    4 1
     5    3   36 1
     6    4    6 2
     7    4   37 1
     8    5    6 1
     9    6    7 1
    10    7    8 2
    11    7    9 1
    12    8   11 1
    13    8   38 1
    14    9   10 1
    15   10   11 2
    16   11   12 1
    17   12   13 1
    18   12   19 1
    19   12   39 1
    20   13   14 1
    21   13   17 1
    22   14   15 1
    23   14   18 1
    24   14   40 1
    25   15   16 1
    26   15   45 1
    27   15   46 1
    28   16   17 1
    29   16   47 1
    30   16   48 1
    31   17   41 1
    32   17   42 1
    33   18   19 1
    34   18   22 1
    35   18   43 1
    36   19   20 1
    37   19   44 1
    38   20   21 2
    39   20   24 1
    40   22   23 2
    41   22   24 1
    42   24   25 1
    43   25   26 1
    44   25   49 1
    45   25   50 1
    46   26   27 1
    47   26   51 1
    48   26   52 1
    49   27   28 1
    50   27   53 1
    51   27   54 1
    52   28   29 1
    53   28   32 1
    54   28   35 1
    55   29   30 1
    56   29   55 1
    57   29   56 1
    58   30   31 1
    59   30   61 1
    60   30   62 1
    61   31   63 1
    62   32   33 1
    63   32   57 1
    64   32   58 1
    65   33   34 1
    66   33   64 1
    67   33   65 1
    68   34   35 1
    69   34   66 1
    70   34   67 1
    71   35   59 1
    72   35   60 1
@<TRIPOS>SUBSTRUCTURE
     1 XWG         1 TEMP              0 ****  ****    0 ROOT
