@<TRIPOS>MOLECULE
molecule
   50    53     1     0     0
SMALL
bcc


@<TRIPOS>ATOM
      1 C1           0.0000     0.0000     0.0000 c3         1 XWW      -0.112100
      2 C2           1.5300     0.0000     0.0000 c3         1 XWW       0.223200
      3 C3           2.0320     0.0000     1.4210 ca         1 XWW       0.656300
      4 N1           2.5260     1.1130     1.9250 nb         1 XWW      -0.709000
      5 C4           2.9780     1.1520     3.1690 ca         1 XWW       0.431200
      6 C5           2.9240    -0.0000     3.9420 ca         1 XWW      -0.116700
      7 C6           2.3960    -1.1520     3.3740 ca         1 XWW       0.431200
      8 N2           1.9600    -1.1110     2.1260 nb         1 XWW      -0.709000
      9 F1           3.3750    -0.0000     5.2160 f          1 XWW      -0.122900
     10 N3           2.0180    -1.1960    -0.6920 nu         1 XWW      -0.884900
     11 C7           2.1500    -1.1940    -2.0650 ca         1 XWW       1.012900
     12 N4           1.8340    -0.1070    -2.7610 nb         1 XWW      -0.930000
     13 C8           1.9600    -0.1040    -4.0850 ca         1 XWW       1.018900
     14 N5           2.4040    -1.1910    -4.7120 nb         1 XWW      -0.917000
     15 C9           2.7200    -2.2770    -4.0160 ca         1 XWW       0.964900
     16 N6           2.5990    -2.2770    -2.6910 nb         1 XWW      -0.893000
     17 N7           3.1800    -3.4040    -4.6660 nh         1 XWW      -0.679300
     18 C10          3.2420    -3.1860    -6.1180 c3         1 XWW       0.137300
     19 C11          3.8120    -4.4360    -6.7940 c3         1 XWW       0.133900
     20 O1           3.0050    -5.5660    -6.4500 os         1 XWW      -0.425600
     21 C12          2.9240    -5.8090    -5.0430 c3         1 XWW       0.133900
     22 C13          2.3450    -4.5720    -4.3510 c3         1 XWW       0.137300
     23 N8           1.6310     1.0240    -4.8090 nu         1 XWW      -0.813600
     24 C14          1.1620     2.1710    -4.1460 cc         1 XWW       0.548200
     25 C15          0.9870     2.3040    -2.8120 cd         1 XWW      -0.281600
     26 N9           0.5180     3.5770    -2.6000 na         1 XWW      -0.193900
     27 C16          0.4240     4.1740    -3.8070 cd         1 XWW       0.408400
     28 N10          0.8140     3.3320    -4.7250 nc         1 XWW      -0.726000
     29 C17          0.1820     4.1750    -1.3060 c3         1 XWW       0.036600
     30 H11C        -0.3610     0.0720    -1.0190 hc         1 XWW       0.052700
     31 H12C        -0.3610     0.8460     0.5720 hc         1 XWW       0.052700
     32 H13C        -0.3610    -0.9180     0.4470 hc         1 XWW       0.052700
     33 H2           1.8900     0.8850    -0.5100 h1         1 XWW       0.099700
     34 H3           2.2630    -2.0120    -0.1670 hn         1 XWW       0.475800
     35 H4           3.3830     2.0700     3.5780 h4         1 XWW       0.047600
     36 H6           2.3360    -2.0690     3.9480 h4         1 XWW       0.047600
     37 H8           1.7560     1.0360    -5.8020 hn         1 XWW       0.479800
     38 H101         2.2450    -2.9940    -6.4970 h1         1 XWW       0.063950
     39 H102         3.8830    -2.3380    -6.3280 h1         1 XWW       0.063950
     40 H131         2.3360    -4.7300    -3.2790 h1         1 XWW       0.063950
     41 H132         1.3360    -4.4000    -4.7050 h1         1 XWW       0.063950
     42 H111         4.8270    -4.5990    -6.4520 h1         1 XWW       0.056950
     43 H112         3.8030    -4.3000    -7.8690 h1         1 XWW       0.056950
     44 H121         2.2780    -6.6590    -4.8600 h1         1 XWW       0.056950
     45 H122         3.9150    -6.0090    -4.6540 h1         1 XWW       0.056950
     46 H15          1.1790     1.5520    -2.0570 h4         1 XWW       0.224000
     47 H16          0.0860     5.1880    -3.9840 h5         1 XWW       0.064100
     48 H171         1.0310     4.0890    -0.6380 h1         1 XWW       0.053033
     49 H172        -0.0640     5.2210    -1.4450 h1         1 XWW       0.053033
     50 H173        -0.6680     3.6580    -0.8790 h1         1 XWW       0.053033
@<TRIPOS>BOND
     1     1     2 1
     2     2     3 1
     3     2    10 1
     4     3     4 ar
     5     3     8 ar
     6     4     5 ar
     7     5     6 ar
     8     6     7 ar
     9     6     9 1
    10     7     8 ar
    11    10    11 1
    12    11    12 ar
    13    11    16 ar
    14    12    13 ar
    15    13    14 ar
    16    13    23 1
    17    14    15 ar
    18    15    16 ar
    19    15    17 1
    20    17    18 1
    21    17    22 1
    22    18    19 1
    23    19    20 1
    24    20    21 1
    25    21    22 1
    26    23    24 1
    27    24    25 2
    28    24    28 1
    29    25    26 1
    30    26    27 1
    31    26    29 1
    32    27    28 2
    33     1    30 1
    34     1    31 1
    35     1    32 1
    36     2    33 1
    37    10    34 1
    38     5    35 1
    39     7    36 1
    40    23    37 1
    41    18    38 1
    42    18    39 1
    43    22    40 1
    44    22    41 1
    45    19    42 1
    46    19    43 1
    47    21    44 1
    48    21    45 1
    49    25    46 1
    50    27    47 1
    51    29    48 1
    52    29    49 1
    53    29    50 1
@<TRIPOS>SUBSTRUCTURE
     1 XWW         1 TEMP              0 ****  ****    0 ROOT
