@<TRIPOS>MOLECULE
XWW
   50    53     1     0     0
SMALL
bcc


@<TRIPOS>ATOM
      1 C1           0.0000     0.0000     0.0000 c3         1 XWW      -0.021100
      2 C2           1.5300     0.0000     0.0000 c3         1 XWW       0.093200
      3 C3           2.0320     0.0000     1.4210 ca         1 XWW       0.566300
      4 N1           2.5260     1.1130     1.9250 nb         1 XWW      -0.586000
      5 C4           2.9780     1.1520     3.1690 ca         1 XWW       0.416700
      6 C5           2.9240    -0.0000     3.9420 ca         1 XWW      -0.128700
      7 C6           2.3960    -1.1520     3.3740 ca         1 XWW       0.416700
      8 N2           1.9600    -1.1110     2.1260 nb         1 XWW      -0.586000
      9 F1           3.3750    -0.0000     5.2160 f          1 XWW      -0.107900
     10 N3           2.0180    -1.1960    -0.6920 nu         1 XWW      -0.465900
     11 C7           2.1500    -1.1940    -2.0650 ca         1 XWW       0.797900
     12 N4           1.8340    -0.1070    -2.7610 nb         1 XWW      -0.838000
     13 C8           1.9600    -0.1040    -4.0850 ca         1 XWW       0.780900
     14 N5           2.4040    -1.1910    -4.7120 nb         1 XWW      -0.832000
     15 C9           2.7200    -2.2770    -4.0160 ca         1 XWW       0.813900
     16 N6           2.5990    -2.2770    -2.6910 nb         1 XWW      -0.808000
     17 N7           3.1800    -3.4040    -4.6660 nh         1 XWW      -0.437300
     18 C10          3.2420    -3.1860    -6.1180 c3         1 XWW       0.101800
     19 C11          3.8120    -4.4360    -6.7940 c3         1 XWW       0.210900
     20 O1           3.0050    -5.5660    -6.4500 os         1 XWW      -0.412600
     21 C12          2.9240    -5.8090    -5.0430 c3         1 XWW       0.210900
     22 C13          2.3450    -4.5720    -4.3510 c3         1 XWW       0.101800
     23 N8           1.6310     1.0240    -4.8090 nu         1 XWW      -0.307600
     24 C14          1.1620     2.1710    -4.1460 cc         1 XWW       0.367200
     25 C15          0.9870     2.3040    -2.8120 cd         1 XWW      -0.464600
     26 N9           0.5180     3.5770    -2.6000 na         1 XWW       0.288100
     27 C16          0.4240     4.1740    -3.8070 cd         1 XWW       0.232400
     28 N10          0.8140     3.3320    -4.7250 nc         1 XWW      -0.637000
     29 C17          0.1820     4.1750    -1.3060 c3         1 XWW      -0.007400
     30 H11C        -0.3610     0.0720    -1.0190 hc         1 XWW       0.018367
     31 H12C        -0.3610     0.8460     0.5720 hc         1 XWW       0.018367
     32 H13C        -0.3610    -0.9180     0.4470 hc         1 XWW       0.018367
     33 H2           1.8900     0.8850    -0.5100 h1         1 XWW       0.070700
     34 H3           2.2630    -2.0120    -0.1670 hn         1 XWW       0.316800
     35 H4           3.3830     2.0700     3.5780 h4         1 XWW       0.002600
     36 H6           2.3360    -2.0690     3.9480 h4         1 XWW       0.002600
     37 H8           1.7560     1.0360    -5.8020 hn         1 XWW       0.293800
     38 H101         2.2450    -2.9940    -6.4970 h1         1 XWW       0.035200
     39 H102         3.8830    -2.3380    -6.3280 h1         1 XWW       0.035200
     40 H131         2.3360    -4.7300    -3.2790 h1         1 XWW       0.035200
     41 H132         1.3360    -4.4000    -4.7050 h1         1 XWW       0.035200
     42 H111         4.8270    -4.5990    -6.4520 h1         1 XWW       0.013950
     43 H112         3.8030    -4.3000    -7.8690 h1         1 XWW       0.013950
     44 H121         2.2780    -6.6590    -4.8600 h1         1 XWW       0.013950
     45 H122         3.9150    -6.0090    -4.6540 h1         1 XWW       0.013950
     46 H15          1.1790     1.5520    -2.0570 h4         1 XWW       0.216000
     47 H16          0.0860     5.1880    -3.9840 h5         1 XWW       0.022100
     48 H171         1.0310     4.0890    -0.6380 h1         1 XWW       0.022700
     49 H172        -0.0640     5.2210    -1.4450 h1         1 XWW       0.022700
     50 H173        -0.6680     3.6580    -0.8790 h1         1 XWW       0.022700
@<TRIPOS>BOND
     1     1     2 1   
     2     1    30 1   
     3     1    31 1   
     4     1    32 1   
     5     2     3 1   
     6     2    10 1   
     7     2    33 1   
     8     3     4 ar  
     9     3     8 ar  
    10     4     5 ar  
    11     5     6 ar  
    12     5    35 1   
    13     6     7 ar  
    14     6     9 1   
    15     7     8 ar  
    16     7    36 1   
    17    10    11 1   
    18    10    34 1   
    19    11    12 ar  
    20    11    16 ar  
    21    12    13 ar  
    22    13    14 ar  
    23    13    23 1   
    24    14    15 ar  
    25    15    16 ar  
    26    15    17 1   
    27    17    18 1   
    28    17    22 1   
    29    18    19 1   
    30    18    38 1   
    31    18    39 1   
    32    19    20 1   
    33    19    42 1   
    34    19    43 1   
    35    20    21 1   
    36    21    22 1   
    37    21    44 1   
    38    21    45 1   
    39    22    40 1   
    40    22    41 1   
    41    23    24 1   
    42    23    37 1   
    43    24    25 2   
    44    24    28 1   
    45    25    26 1   
    46    25    46 1   
    47    26    27 1   
    48    26    29 1   
    49    27    28 2   
    50    27    47 1   
    51    29    48 1   
    52    29    49 1   
    53    29    50 1   
@<TRIPOS>SUBSTRUCTURE
     1 XWW         1 TEMP              0 ****  ****    0 ROOT
