@<TRIPOS>MOLECULE
molecule
   18    18     1     0     0
SMALL
bcc


@<TRIPOS>ATOM
      1 O8           1.4200     0.0000     0.0000 oh         1 XX3      -0.555800
      2 C2           0.0000     0.0000     0.0000 c3         1 XX3       0.300800
      3 O12         -0.4990     0.0000     1.3280 os         1 XX3      -0.225800
      4 O13         -1.9450    -0.0730     1.1920 oh         1 XX3      -0.397000
      5 C1          -0.4980     1.2640    -0.7220 c          1 XX3       0.543300
      6 O7          -0.2200     2.3890    -0.3060 o          1 XX3      -0.471100
      7 C6          -1.3320     1.1340    -1.9480 ce         1 XX3      -0.200200
      8 C5          -1.6510    -0.0800    -2.4120 cf         1 XX3      -0.069000
      9 C3          -0.4490    -1.2770    -0.6490 c2         1 XX3      -0.072200
     10 C4          -1.2040    -1.2680    -1.7510 cf         1 XX3      -0.125100
     11 N9          -1.5630    -2.5420    -2.2680 no         1 XX3       0.264100
     12 O10         -1.7350    -2.6310    -3.4920 o          1 XX3      -0.193000
     13 O11         -1.6800    -3.4710    -1.4570 o          1 XX3      -0.193000
     14 HO8          1.7340    -0.0400     0.8880 ho         1 XX3       0.437000
     15 HO13        -2.3440    -0.0370     2.0460 ho         1 XX3       0.435000
     16 H6          -1.6300     2.0190    -2.4970 ha         1 XX3       0.172000
     17 H5          -2.2590    -0.1640    -3.3040 ha         1 XX3       0.168000
     18 H31         -0.1540    -2.2250    -0.2160 ha         1 XX3       0.183000
@<TRIPOS>BOND
     1     1     2 1
     2     1    14 1
     3     2     3 1
     4     2     9 1
     5     2     5 1
     6     3     4 1
     7     4    15 1
     8     5     7 1
     9     5     6 2
    10     7     8 2
    11     7    16 1
    12     8    10 1
    13     8    17 1
    14     9    10 2
    15     9    18 1
    16    10    11 1
    17    11    12 1
    18    11    13 1
@<TRIPOS>SUBSTRUCTURE
     1 XX3         1 TEMP              0 ****  ****    0 ROOT
