@<TRIPOS>MOLECULE
molecule
   62    65     1     0     0
SMALL
bcc


@<TRIPOS>ATOM
      1 C01          0.0000     0.0000     0.0000 c3         1 XX4       0.087300
      2 N02          1.4640     0.0000     0.0000 n          1 XX4      -0.474800
      3 C03          2.1390     0.0010    -1.1670 c          1 XX4       0.656100
      4 O04          3.3510     0.0010    -1.1670 o          1 XX4      -0.601100
      5 C05          1.3850     0.0010    -2.4720 c3         1 XX4      -0.191400
      6 C06          2.3790     0.0010    -3.6350 c3         1 XX4       0.224800
      7 N07          1.6460     0.0020    -4.9030 nh         1 XX4      -0.819600
      8 C08          1.2660    -1.2630    -5.5510 c3         1 XX4       0.298100
      9 C09          1.4920    -1.1110    -7.0360 ca         1 XX4      -0.137300
     10 C10          1.7410    -2.2010    -7.8120 ca         1 XX4      -0.081000
     11 C11          1.9370    -2.0450    -9.1910 ca         1 XX4      -0.090600
     12 C12          2.2090    -3.2200   -10.0340 c          1 XX4       0.578300
     13 O13          1.7830    -3.2630   -11.1730 o          1 XX4      -0.499100
     14 C14          2.9970    -4.3490    -9.4970 ca         1 XX4      -0.158600
     15 C15          3.1180    -5.5310   -10.2310 ca         1 XX4      -0.091500
     16 C16          3.8560    -6.5810    -9.7230 ca         1 XX4      -0.142500
     17 C17          4.4740    -6.4640    -8.4900 ca         1 XX4      -0.094000
     18 C18          4.3570    -5.2960    -7.7580 ca         1 XX4      -0.142500
     19 C19          3.6280    -4.2360    -8.2570 ca         1 XX4      -0.091500
     20 C20          1.8760    -0.7700    -9.7670 ca         1 XX4      -0.082000
     21 C21          1.6300     0.3220    -8.9870 ca         1 XX4      -0.069000
     22 C22          1.4390     0.1680    -7.6070 ca         1 XX4       0.128400
     23 N23          1.2240     1.2580    -6.8210 ne         1 XX4      -0.566100
     24 C24          1.2960     1.1830    -5.5100 c2         1 XX4       0.616100
     25 N25          1.0250     2.2870    -4.7450 nz         1 XX4      -0.730600
     26 C26          2.1970     0.0000     1.2690 c3         1 XX4       0.107700
     27 C27          1.8280     1.2490     2.0720 c3         1 XX4      -0.092400
     28 C28          2.5930     1.2490     3.3960 c3         1 XX4      -0.077400
     29 C29          2.2230    -0.0010     4.1990 c3         1 XX4      -0.084400
     30 C30          2.5930    -1.2500     3.3960 c3         1 XX4      -0.077400
     31 C31          1.8280    -1.2500     2.0710 c3         1 XX4      -0.092400
     32 H011        -0.3610     0.8970    -0.4890 h1         1 XX4       0.043033
     33 H012        -0.3610    -0.8720    -0.5320 h1         1 XX4       0.043033
     34 H013        -0.3610    -0.0250     1.0210 h1         1 XX4       0.043033
     35 H051         0.7620     0.8850    -2.5290 hc         1 XX4       0.054200
     36 H052         0.7630    -0.8840    -2.5290 hc         1 XX4       0.054200
     37 H061         3.0020     0.8860    -3.5770 h1         1 XX4       0.085200
     38 H062         3.0020    -0.8830    -3.5780 h1         1 XX4       0.085200
     39 H081         0.2210    -1.4710    -5.3600 h1         1 XX4       0.076700
     40 H082         1.8820    -2.0680    -5.1690 h1         1 XX4       0.076700
     41 H10          1.1310    -3.0460    -7.5160 ha         1 XX4       0.161000
     42 H15          2.5840    -5.6460   -11.1660 ha         1 XX4       0.153500
     43 H16          3.9480    -7.5010   -10.2890 ha         1 XX4       0.141500
     44 H17          5.0510    -7.2920    -8.0960 ha         1 XX4       0.141000
     45 H18          4.8370    -5.2140    -6.7910 ha         1 XX4       0.141500
     46 H19          4.1760    -3.4290    -7.7860 ha         1 XX4       0.153500
     47 H20          1.9840    -0.5080   -10.8120 ha         1 XX4       0.173000
     48 H21          1.5630     1.2770    -9.4940 ha         1 XX4       0.162000
     49 H251         1.8270     2.5130    -4.1900 hn         1 XX4       0.471133
     50 H252         0.8050     3.0600    -5.3410 hn         1 XX4       0.471133
     51 H26          3.2630     0.0000     1.0760 h1         1 XX4       0.100700
     52 H271         2.0920     2.1330     1.5040 hc         1 XX4       0.044700
     53 H272         0.7630     1.2460     2.2720 hc         1 XX4       0.044700
     54 H281         2.3280     2.1320     3.9650 hc         1 XX4       0.052200
     55 H282         3.6580     1.2460     3.1970 hc         1 XX4       0.052200
     56 H291         2.7680    -0.0010     5.1360 hc         1 XX4       0.049200
     57 H292         1.1580    -0.0020     4.3940 hc         1 XX4       0.049200
     58 H301         3.6580    -1.2470     3.1970 hc         1 XX4       0.052200
     59 H302         2.3290    -2.1340     3.9640 hc         1 XX4       0.052200
     60 H311         0.7640    -1.2490     2.2700 hc         1 XX4       0.044700
     61 H312         2.0940    -2.1330     1.5020 hc         1 XX4       0.044700
     62 H253         0.2480     2.0950    -4.1450 hn         1 XX4       0.471133
@<TRIPOS>BOND
     1     1     2 1
     2     1    32 1
     3     1    33 1
     4     1    34 1
     5     2    26 1
     6     2     3 1
     7     3     4 2
     8     3     5 1
     9     5     6 1
    10     5    35 1
    11     5    36 1
    12     6     7 1
    13     6    37 1
    14     6    38 1
    15     7    24 1
    16     7     8 1
    17     8     9 1
    18     8    39 1
    19     8    40 1
    20     9    10 ar
    21     9    22 ar
    22    10    11 ar
    23    10    41 1
    24    11    12 1
    25    11    20 ar
    26    12    14 1
    27    12    13 2
    28    14    15 ar
    29    14    19 ar
    30    15    16 ar
    31    15    42 1
    32    16    17 ar
    33    16    43 1
    34    17    18 ar
    35    17    44 1
    36    18    19 ar
    37    18    45 1
    38    19    46 1
    39    20    21 ar
    40    20    47 1
    41    21    22 ar
    42    21    48 1
    43    22    23 1
    44    23    24 2
    45    24    25 1
    46    25    49 1
    47    25    50 1
    48    26    27 1
    49    26    31 1
    50    26    51 1
    51    27    28 1
    52    27    52 1
    53    27    53 1
    54    28    29 1
    55    28    54 1
    56    28    55 1
    57    29    30 1
    58    29    56 1
    59    29    57 1
    60    30    31 1
    61    30    58 1
    62    30    59 1
    63    31    60 1
    64    31    61 1
    65    62    25 1
@<TRIPOS>SUBSTRUCTURE
     1 XX4         1 TEMP              0 ****  ****    0 ROOT
