@<TRIPOS>MOLECULE
molecule
   49    50     1     0     0
SMALL
bcc


@<TRIPOS>ATOM
      1 O1           0.0000     0.0000     0.0000 o          1 XX5      -0.867800
      2 C2           1.2260     0.0000     0.0000 c          1 XX5       0.889600
      3 O3           1.9500    -0.0550    -1.1440 o          1 XX5      -0.867800
      4 C4           2.0570     0.0000     1.2720 c3         1 XX5       0.062500
      5 C5           2.4300    -1.4130     1.7450 c3         1 XX5      -0.041400
      6 C6           3.2940    -1.5400     3.0200 c3         1 XX5      -0.056700
      7 C7           4.6200    -0.8010     2.8060 c3         1 XX5      -0.084100
      8 C8           2.6160    -1.0110     4.2810 c3         1 XX5      -0.084100
      9 N9           1.4800     0.7930     2.3260 n7         1 XX5      -0.803200
     10 C10          1.3420     2.1940     1.9320 c3         1 XX5       0.071500
     11 C11          2.6890     2.7940     1.5560 c          1 XX5       0.899600
     12 O12          2.8070     3.1600     0.2570 o          1 XX5      -0.847800
     13 O13          3.6060     2.9300     2.3600 o          1 XX5      -0.847800
     14 C14          0.6930     3.0230     3.0480 c3         1 XX5      -0.008100
     15 C15          0.0580     4.2960     2.5440 cc         1 XX5      -0.136900
     16 C16          0.5740     5.5350     2.3970 cd         1 XX5       0.285200
     17 N17         -0.3810     6.3870     1.9010 nd         1 XX5      -0.684000
     18 C18         -1.4540     5.6400     1.7590 cc         1 XX5       0.324400
     19 N19         -1.2270     4.3480     2.1430 na         1 XX5      -0.182900
     20 C20         -2.1970     3.2780     2.1130 c3         1 XX5       0.087600
     21 C21         -2.9590     3.1910     3.4060 ca         1 XX5      -0.077300
     22 C22         -3.4450     4.3510     3.9930 ca         1 XX5      -0.098000
     23 C23         -4.1540     4.2710     5.1920 ca         1 XX5       0.022900
     24 Cl24        -4.7620     5.7020     5.9290 cl         1 XX5      -0.115900
     25 C25         -4.3700     3.0310     5.7930 ca         1 XX5      -0.134000
     26 C26         -3.1680     1.9520     3.9960 ca         1 XX5      -0.098000
     27 C27         -3.8770     1.8710     5.1950 ca         1 XX5       0.022900
     28 Cl28        -4.1440     0.3410     5.9350 cl         1 XX5      -0.115900
     29 HC4          2.9920     0.4830     1.0160 h1         1 XX5       0.096700
     30 HC51         2.9620    -1.9010     0.9370 hc         1 XX5       0.022200
     31 HC52         1.5090    -1.9580     1.9150 hc         1 XX5       0.022200
     32 HC6          3.5140    -2.5900     3.1730 hc         1 XX5      -0.007300
     33 HC71         5.3840    -1.2390     3.4380 hc         1 XX5       0.029700
     34 HC72         4.4960     0.2450     3.0610 hc         1 XX5       0.029700
     35 HC73         4.9180    -0.8860     1.7680 hc         1 XX5       0.029700
     36 HC81         2.6990     0.0690     4.3100 hc         1 XX5       0.029700
     37 HC82         1.5700    -1.2920     4.2740 hc         1 XX5       0.029700
     38 HC83         3.0970    -1.4340     5.1540 hc         1 XX5       0.029700
     39 HN9          0.5810     0.4240     2.5680 hn         1 XX5       0.309800
     40 H10          0.6980     2.2380     1.0610 h1         1 XX5       0.054700
     41 H141        -0.0680     2.4220     3.5310 hc         1 XX5       0.039700
     42 H142         1.4520     3.2780     3.7780 hc         1 XX5       0.039700
     43 H16          1.5930     5.8150     2.6370 h4         1 XX5       0.050100
     44 H18         -2.4020     6.0040     1.3830 h5         1 XX5       0.026100
     45 H201        -2.8930     3.4550     1.3020 h1         1 XX5       0.091700
     46 H202        -1.6830     2.3400     1.9410 h1         1 XX5       0.091700
     47 H22         -3.3880     5.2930     3.4600 ha         1 XX5       0.165000
     48 H25         -4.9200     2.9690     6.7240 ha         1 XX5       0.140000
     49 H26         -2.7840     1.0530     3.5290 ha         1 XX5       0.165000
@<TRIPOS>BOND
     1     1     2 1
     2     2     3 1
     3     2     4 1
     4     4     5 1
     5     4     9 1
     6     4    29 1
     7     5     6 1
     8     5    30 1
     9     5    31 1
    10     6     7 1
    11     6     8 1
    12     6    32 1
    13     7    33 1
    14     7    34 1
    15     7    35 1
    16     8    36 1
    17     8    37 1
    18     8    38 1
    19     9    10 1
    20     9    39 1
    21    10    11 1
    22    10    14 1
    23    10    40 1
    24    11    12 1
    25    11    13 1
    26    14    15 1
    27    14    41 1
    28    14    42 1
    29    15    16 2
    30    15    19 1
    31    16    17 1
    32    16    43 1
    33    17    18 2
    34    18    19 1
    35    18    44 1
    36    19    20 1
    37    20    21 1
    38    20    45 1
    39    20    46 1
    40    21    22 ar
    41    21    26 ar
    42    22    23 ar
    43    22    47 1
    44    23    24 1
    45    23    25 ar
    46    25    27 ar
    47    25    48 1
    48    26    27 ar
    49    26    49 1
    50    27    28 1
@<TRIPOS>SUBSTRUCTURE
     1 XX5         1 TEMP              0 ****  ****    0 ROOT
