@<TRIPOS>MOLECULE
molecule
   48    50     1     0     0
SMALL
bcc


@<TRIPOS>ATOM
      1 O4           0.0000     0.0000     0.0000 oh         1 XX6      -0.563800
      2 C19          1.4290     0.0000     0.0000 c3         1 XX6       0.150400
      3 C18          1.9390     0.0000     1.4420 c3         1 XX6       0.170500
      4 C20          1.3280     1.1820     2.1990 c3         1 XX6       0.150400
      5 O3          -0.0960     1.1270     2.0980 oh         1 XX6      -0.563800
      6 N            1.5500    -1.2550     2.1000 n7         1 XX6      -0.794200
      7 C17          2.4630    -1.5740     3.2050 c3         1 XX6       0.149800
      8 C16          2.0280    -2.8850     3.8640 c3         1 XX6       0.148100
      9 O2           2.1740    -3.9580     2.9310 oh         1 XX6      -0.605800
     10 C15          2.8990    -3.1530     5.0920 c3         1 XX6       0.120400
     11 O1           2.4190    -4.3140     5.7730 os         1 XX6      -0.327900
     12 C10          3.0870    -4.6930     6.8920 ca         1 XX6       0.163100
     13 C5           2.6460    -5.8720     7.6350 ca         1 XX6      -0.038000
     14 C6           1.5420    -6.6240     7.2150 ca         1 XX6      -0.093000
     15 C1           1.1580    -7.7200     7.9320 ca         1 XX6      -0.138000
     16 C2           1.8480    -8.1000     9.0770 ca         1 XX6      -0.114000
     17 C3           2.9280    -7.3860     9.5130 ca         1 XX6      -0.125000
     18 C4           3.3450    -6.2600     8.7990 ca         1 XX6       0.000000
     19 C7           4.4980    -5.4640     9.2300 ca         1 XX6      -0.052000
     20 C11          5.2230    -5.8050    10.3750 ca         1 XX6      -0.105000
     21 C12          6.2920    -5.0450    10.7520 ca         1 XX6      -0.138000
     22 C13          6.6690    -3.9320    10.0090 ca         1 XX6      -0.117000
     23 C14          5.9830    -3.5740     8.8870 ca         1 XX6      -0.129000
     24 C8           4.8790    -4.3340     8.4720 ca         1 XX6       0.009000
     25 C9           4.1590    -3.9780     7.3090 ca         1 XX6      -0.243000
     26 H4          -0.3140    -0.1480    -0.8770 ho         1 XX6       0.387000
     27 H191         1.7900     0.8840    -0.5110 h1         1 XX6       0.016200
     28 H192         1.7900    -0.8840    -0.5110 h1         1 XX6       0.016200
     29 H18          3.0190     0.0890     1.4430 h1         1 XX6       0.034700
     30 H201         1.6190     1.1320     3.2410 h1         1 XX6       0.016200
     31 H202         1.6850     2.1100     1.7680 h1         1 XX6       0.016200
     32 H            1.5640    -2.0000     1.4310 hn         1 XX6       0.368800
     33 H3          -0.4750     1.7980     2.6400 ho         1 XX6       0.387000
     34 H171         3.4710    -1.6790     2.8230 h1         1 XX6       0.039200
     35 H172         2.4350    -0.7760     3.9380 h1         1 XX6       0.039200
     36 H16          0.9900    -2.8100     4.1670 h1         1 XX6       0.064700
     37 H2           1.3790    -4.4630     2.9060 ho         1 XX6       0.414000
     38 H151         2.8560    -2.3000     5.7590 h1         1 XX6       0.046700
     39 H152         3.9240    -3.3160     4.7800 h1         1 XX6       0.046700
     40 H9           4.4720    -3.1120     6.7380 ha         1 XX6       0.135000
     41 H6           0.9960    -6.3390     6.3240 ha         1 XX6       0.145000
     42 H1           0.3050    -8.3010     7.6050 ha         1 XX6       0.131000
     43 HA           1.5250    -8.9740     9.6310 ha         1 XX6       0.130000
     44 HB           3.4580    -7.6910    10.4070 ha         1 XX6       0.136000
     45 H11          4.9370    -6.6700    10.9610 ha         1 XX6       0.131000
     46 H12          6.8520    -5.3110    11.6400 ha         1 XX6       0.128000
     47 H13          7.5210    -3.3420    10.3260 ha         1 XX6       0.127000
     48 H14          6.2890    -2.7040     8.3180 ha         1 XX6       0.130000
@<TRIPOS>BOND
     1     1     2 1
     2     1    26 1
     3     2     3 1
     4     2    27 1
     5     2    28 1
     6     3     4 1
     7     3     6 1
     8     3    29 1
     9     4     5 1
    10     4    30 1
    11     4    31 1
    12     5    33 1
    13     6     7 1
    14     6    32 1
    15     7     8 1
    16     7    34 1
    17     7    35 1
    18     8     9 1
    19     8    10 1
    20     8    36 1
    21     9    37 1
    22    10    11 1
    23    10    38 1
    24    10    39 1
    25    11    12 1
    26    12    13 ar
    27    12    25 ar
    28    13    14 ar
    29    13    18 ar
    30    14    15 ar
    31    14    41 1
    32    15    16 ar
    33    15    42 1
    34    16    17 ar
    35    16    43 1
    36    17    18 ar
    37    17    44 1
    38    18    19 ar
    39    19    20 ar
    40    19    24 ar
    41    20    45 1
    42    20    21 ar
    43    21    46 1
    44    21    22 ar
    45    22    47 1
    46    22    23 ar
    47    23    48 1
    48    23    24 ar
    49    24    25 ar
    50    25    40 1
@<TRIPOS>SUBSTRUCTURE
     1 XX6         1 TEMP              0 ****  ****    0 ROOT
