@<TRIPOS>MOLECULE
molecule
   48    50     1     0     0
SMALL
bcc


@<TRIPOS>ATOM
      1 O4           0.0000     0.0000     0.0000 oh         1 XX7      -0.563800
      2 C19          1.4290     0.0000     0.0000 c3         1 XX7       0.150400
      3 C18          1.9390     0.0000     1.4420 c3         1 XX7       0.171500
      4 C20          1.3290     1.1810     2.1990 c3         1 XX7       0.150400
      5 O3          -0.0950     1.1270     2.0980 oh         1 XX7      -0.563800
      6 N            1.5510    -1.2560     2.0990 n7         1 XX7      -0.794200
      7 C17          2.5260    -2.3190     1.8210 c3         1 XX7       0.150800
      8 O2           2.0160    -3.3850     3.9300 oh         1 XX7      -0.605800
      9 C15          3.1020    -4.7150     2.2300 c3         1 XX7       0.119400
     10 O1           2.6360    -5.9470     2.7850 os         1 XX7      -0.327900
     11 C10          3.4260    -7.0380     2.6150 ca         1 XX7       0.163100
     12 C5           3.0040    -8.3280     3.1580 ca         1 XX7      -0.038000
     13 C6           1.7970    -8.4630     3.8550 ca         1 XX7      -0.092000
     14 C1           1.4350    -9.6840     4.3490 ca         1 XX7      -0.138000
     15 C2           2.2500   -10.7960     4.1710 ca         1 XX7      -0.114000
     16 C3           3.4330   -10.6940     3.4950 ca         1 XX7      -0.125000
     17 C4           3.8300    -9.4600     2.9770 ca         1 XX7       0.000000
     18 C7           5.0920    -9.3040     2.2470 ca         1 XX7      -0.051000
     19 C11          5.9440   -10.3920     2.0420 ca         1 XX7      -0.106000
     20 C12          7.1130   -10.2180     1.3590 ca         1 XX7      -0.138000
     21 C13          7.4670    -8.9690     0.8630 ca         1 XX7      -0.117000
     22 C14          6.6560    -7.8880     1.0460 ca         1 XX7      -0.129000
     23 C8           5.4460    -8.0330     1.7440 ca         1 XX7       0.009000
     24 C9           4.5920    -6.9240     1.9380 ca         1 XX7      -0.243000
     25 C16          2.0880    -3.6080     2.5190 c3         1 XX7       0.149100
     26 H4          -0.3140    -0.0940    -0.8840 ho         1 XX7       0.387000
     27 H191         1.7900    -0.8840    -0.5110 h1         1 XX7       0.016200
     28 H192         1.7900     0.8850    -0.5110 h1         1 XX7       0.016200
     29 H18          3.0190     0.0890     1.4430 h1         1 XX7       0.034700
     30 H201         1.6200     1.1310     3.2410 h1         1 XX7       0.016200
     31 H202         1.6860     2.1090     1.7680 h1         1 XX7       0.016200
     32 H            1.4890    -1.1100     3.0870 hn         1 XX7       0.370800
     33 H3          -0.4750     1.7630     2.6810 ho         1 XX7       0.387000
     34 H171         2.5800    -2.4880     0.7520 h1         1 XX7       0.038200
     35 H172         3.5000    -2.0220     2.1890 h1         1 XX7       0.038200
     36 H16          1.1130    -3.9060     2.1510 h1         1 XX7       0.063700
     37 H2           1.1910    -3.7040     4.2570 ho         1 XX7       0.414000
     38 H151         4.0550    -4.4570     2.6750 h1         1 XX7       0.047200
     39 H152         3.2220    -4.8240     1.1590 h1         1 XX7       0.047200
     40 H9           4.8780    -5.9590     1.5370 ha         1 XX7       0.135000
     41 H6           1.1530    -7.6050     4.0010 ha         1 XX7       0.145000
     42 H1           0.5010    -9.7860     4.8880 ha         1 XX7       0.131000
     43 HA           1.9430   -11.7540     4.5710 ha         1 XX7       0.130000
     44 HB           4.0600   -11.5670     3.3620 ha         1 XX7       0.136000
     45 H11          5.6790   -11.3700     2.4240 ha         1 XX7       0.131000
     46 H12          7.7730   -11.0630     1.2020 ha         1 XX7       0.128000
     47 H13          8.3990    -8.8520     0.3230 ha         1 XX7       0.127000
     48 H14          6.9440    -6.9200     0.6540 ha         1 XX7       0.130000
@<TRIPOS>BOND
     1     1     2 1
     2     1    26 1
     3     2     3 1
     4     2    27 1
     5     2    28 1
     6     3     4 1
     7     3     6 1
     8     3    29 1
     9     4     5 1
    10     4    30 1
    11     4    31 1
    12     5    33 1
    13     6     7 1
    14     6    32 1
    15     7    25 1
    16     7    34 1
    17     7    35 1
    18     8    25 1
    19     8    37 1
    20     9    10 1
    21     9    25 1
    22     9    38 1
    23     9    39 1
    24    10    11 1
    25    11    12 ar
    26    11    24 ar
    27    12    13 ar
    28    12    17 ar
    29    13    14 ar
    30    13    41 1
    31    14    15 ar
    32    14    42 1
    33    15    16 ar
    34    15    43 1
    35    16    17 ar
    36    16    44 1
    37    17    18 ar
    38    18    19 ar
    39    18    23 ar
    40    19    20 ar
    41    19    45 1
    42    20    21 ar
    43    20    46 1
    44    21    22 ar
    45    21    47 1
    46    22    23 ar
    47    22    48 1
    48    23    24 ar
    49    24    40 1
    50    25    36 1
@<TRIPOS>SUBSTRUCTURE
     1 XX7         1 TEMP              0 ****  ****    0 ROOT
