@<TRIPOS>MOLECULE
molecule
   32    33     1     0     0
SMALL
bcc


@<TRIPOS>ATOM
      1 CM2          0.0000     0.0000     0.0000 c3         1 XX8      -0.122400
      2 O01          6.7210    -4.4660     1.2080 oh         1 XX8      -0.601800
      3 C2           5.7430    -2.1700    -3.0500 ca         1 XX8      -0.114000
      4 C5           7.0020    -3.2470    -0.8370 ca         1 XX8      -0.084300
      5 C4           6.5270    -1.9490    -0.7990 ca         1 XX8      -0.101000
      6 C01          5.8970    -1.4110    -1.9050 ca         1 XX8      -0.084300
      7 C7A          5.3800     0.0040    -1.8640 c3         1 XX8       0.031200
      8 C4A          3.6750     0.0000     0.0000 ca         1 XX8       0.741200
      9 N3A          2.4050     0.0000     0.3950 nb         1 XX8      -0.805000
     10 C2A          1.4270     0.0000    -0.4880 ca         1 XX8       0.724300
     11 N1A          1.6600    -0.0020    -1.7840 nb         1 XX8      -0.779000
     12 C6A          2.8990    -0.0010    -2.2560 ca         1 XX8       0.495200
     13 C5A          3.9570     0.0050    -1.3690 ca         1 XX8      -0.402900
     14 C28          6.8480    -4.0050    -1.9820 ca         1 XX8      -0.108000
     15 C30          6.2180    -3.4670    -3.0880 ca         1 XX8      -0.127000
     16 H1          -0.1290    -0.7810     0.7400 hc         1 XX8       0.059033
     17 H2          -0.2300     0.9610     0.4450 hc         1 XX8       0.059033
     18 H3          -0.6670    -0.1800    -0.8340 hc         1 XX8       0.059033
     19 H4           5.6170     0.3020     0.6630 hn         1 XX8       0.442800
     20 H5           4.5120    -0.2410     1.8820 hn         1 XX8       0.442800
     21 H6           7.1620    -4.9610     1.8780 ho         1 XX8       0.400000
     22 H7           8.1850    -3.0440     0.9220 h1         1 XX8       0.024700
     23 H8           8.4210    -4.5640     0.0480 h1         1 XX8       0.024700
     24 H9           5.2500    -1.7480    -3.9180 ha         1 XX8       0.130000
     25 H10          6.6480    -1.3540     0.0980 ha         1 XX8       0.127000
     26 H11          5.4160     0.4310    -2.8590 hc         1 XX8       0.049200
     27 H12          5.9950     0.5950    -1.1960 hc         1 XX8       0.049200
     28 H13          3.0790    -0.0030    -3.3240 h4         1 XX8       0.025100
     29 H14          7.2200    -5.0220    -2.0110 ha         1 XX8       0.132000
     30 H15          6.0980    -4.0620    -3.9860 ha         1 XX8       0.132000
     31 N4A          4.7010     0.0010     0.9300 nv         1 XX8      -1.006500
     32 C6           7.6890    -3.8330     0.3690 c3         1 XX8       0.188700
@<TRIPOS>BOND
     1     3    15 ar
     2     3     6 ar
     3    15    14 ar
     4     7     6 1
     5     7    13 1
     6     6     5 ar
     7    14     4 ar
     8    13    12 ar
     9    13     8 ar
    10     5     4 ar
    11    12    11 ar
    12     4    32 1
    13    31     8 1
    14     8     9 ar
    15    11    10 ar
    16    32     2 1
    17     9    10 ar
    18    10     1 1
    19     1    16 1
    20     1    17 1
    21     1    18 1
    22    31    19 1
    23    31    20 1
    24     2    21 1
    25    32    22 1
    26    32    23 1
    27     3    24 1
    28     5    25 1
    29     7    26 1
    30     7    27 1
    31    12    28 1
    32    14    29 1
    33    15    30 1
@<TRIPOS>SUBSTRUCTURE
     1 XX8         1 TEMP              0 ****  ****    0 ROOT
