@<TRIPOS>MOLECULE
XX8
   32    33     1     0     0
SMALL
bcc


@<TRIPOS>ATOM
      1 CM2          0.0000     0.0000     0.0000 c3         1 XX8      -0.033400
      2 O01          6.7210    -4.4660     1.2080 oh         1 XX8      -0.586800
      3 C2           5.7430    -2.1700    -3.0500 ca         1 XX8      -0.087000
      4 C5           7.0020    -3.2470    -0.8370 ca         1 XX8      -0.102300
      5 C4           6.5270    -1.9490    -0.7990 ca         1 XX8      -0.082000
      6 C01          5.8970    -1.4110    -1.9050 ca         1 XX8      -0.095300
      7 C7A          5.3800     0.0040    -1.8640 c3         1 XX8       0.117200
      8 C4A          3.6750     0.0000     0.0000 ca         1 XX8       0.548200
      9 N3A          2.4050     0.0000     0.3950 nb         1 XX8      -0.694000
     10 C2A          1.4270     0.0000    -0.4880 ca         1 XX8       0.641300
     11 N1A          1.6600    -0.0020    -1.7840 nb         1 XX8      -0.679000
     12 C6A          2.8990    -0.0010    -2.2560 ca         1 XX8       0.490200
     13 C5A          3.9570     0.0050    -1.3690 ca         1 XX8      -0.416900
     14 C28          6.8480    -4.0050    -1.9820 ca         1 XX8      -0.079000
     15 C30          6.2180    -3.4670    -3.0880 ca         1 XX8      -0.099000
     16 H1          -0.1290    -0.7810     0.7400 hc         1 XX8       0.017700
     17 H2          -0.2300     0.9610     0.4450 hc         1 XX8       0.017700
     18 H3          -0.6670    -0.1800    -0.8340 hc         1 XX8       0.017700
     19 H4           5.6170     0.3020     0.6630 hn         1 XX8       0.278300
     20 H5           4.5120    -0.2410     1.8820 hn         1 XX8       0.278300
     21 H6           7.1620    -4.9610     1.8780 ho         1 XX8       0.388000
     22 H7           8.1850    -3.0440     0.9220 h1         1 XX8      -0.014300
     23 H8           8.4210    -4.5640     0.0480 h1         1 XX8      -0.014300
     24 H9           5.2500    -1.7480    -3.9180 ha         1 XX8       0.105000
     25 H10          6.6480    -1.3540     0.0980 ha         1 XX8       0.105000
     26 H11          5.4160     0.4310    -2.8590 hc         1 XX8       0.018200
     27 H12          5.9950     0.5950    -1.1960 hc         1 XX8       0.018200
     28 H13          3.0790    -0.0030    -3.3240 h4         1 XX8      -0.019900
     29 H14          7.2200    -5.0220    -2.0110 ha         1 XX8       0.105000
     30 H15          6.0980    -4.0620    -3.9860 ha         1 XX8       0.104000
     31 N4A          4.7010     0.0010     0.9300 nv         1 XX8      -0.532500
     32 C6           7.6890    -3.8330     0.3690 c3         1 XX8       0.284700
@<TRIPOS>BOND
     1     1    10 1   
     2     1    16 1   
     3     1    17 1   
     4     1    18 1   
     5     2    21 1   
     6     2    32 1   
     7     3     6 ar  
     8     3    15 ar  
     9     3    24 1   
    10     4     5 ar  
    11     4    14 ar  
    12     4    32 1   
    13     5     6 ar  
    14     5    25 1   
    15     6     7 1   
    16     7    13 1   
    17     7    26 1   
    18     7    27 1   
    19     8     9 ar  
    20     8    13 ar  
    21     8    31 1   
    22     9    10 ar  
    23    10    11 ar  
    24    11    12 ar  
    25    12    13 ar  
    26    12    28 1   
    27    14    15 ar  
    28    14    29 1   
    29    15    30 1   
    30    19    31 1   
    31    20    31 1   
    32    22    32 1   
    33    23    32 1   
@<TRIPOS>SUBSTRUCTURE
     1 XX8         1 TEMP              0 ****  ****    0 ROOT
