@<TRIPOS>MOLECULE
XX9
   60    62     1     0     0
SMALL
bcc


@<TRIPOS>ATOM
      1 ClH          0.0000     0.0000     0.0000 cl         1 XX9      -0.000900
      2 CAW          1.7350     0.0000     0.0000 ca         1 XX9       0.049400
      3 CAQ          2.4260     0.0000     1.1920 ca         1 XX9      -0.204500
      4 CBA          3.8170    -0.0050     1.1930 ca         1 XX9       0.111600
      5 NBD          4.5100    -0.0050     2.3990 nh         1 XX9      -0.376000
      6 CAB          5.9750    -0.0110     2.4030 c3         1 XX9       0.206600
      7 CAA          3.7740     0.0010     3.6660 c3         1 XX9       0.206600
      8 CAR          4.5180    -0.0110    -0.0090 ca         1 XX9      -0.204500
      9 CAX          3.8360    -0.0110    -1.2050 ca         1 XX9       0.049400
     10 ClI          4.7110    -0.0180    -2.7050 cl         1 XX9      -0.000900
     11 CBC          2.4360    -0.0060    -1.2110 ca         1 XX9      -0.213600
     12 CAU          1.7020    -0.0120    -2.4900 c          1 XX9       0.609700
     13 OAF          1.2690     1.0280    -2.9470 o          1 XX9      -0.620100
     14 NBE          1.5110    -1.1710    -3.1500 n          1 XX9       0.052000
     15 CAT          1.9270    -2.4380    -2.5430 c3         1 XX9       0.066300
     16 CAY          0.7560    -3.0620    -1.8290 ca         1 XX9      -0.120300
     17 CAN          0.5950    -2.8720    -0.4700 ca         1 XX9      -0.101000
     18 CAK         -0.4800    -3.4440     0.1850 ca         1 XX9      -0.097500
     19 CAJ         -1.3930    -4.2050    -0.5200 ca         1 XX9      -0.094000
     20 CAL         -1.2330    -4.3940    -1.8790 ca         1 XX9      -0.097500
     21 CAO         -0.1600    -3.8180    -2.5350 ca         1 XX9      -0.101000
     22 CAZ          0.9160    -1.1630    -4.4180 ca         1 XX9      -0.105400
     23 CAS          0.4010     0.0170    -4.9370 ca         1 XX9      -0.147000
     24 CAP          0.8440    -2.3360    -5.1580 ca         1 XX9      -0.131000
     25 CAM          0.2560    -2.3290    -6.4080 ca         1 XX9      -0.183000
     26 CAV         -0.2610    -1.1500    -6.9230 ca         1 XX9       0.135100
     27 OAG         -0.8400    -1.1430    -8.1540 oh         1 XX9      -0.473100
     28 CBB         -0.1810     0.0240    -6.1880 ca         1 XX9      -0.082300
     29 CBF         -0.7460     1.3030    -6.7500 c3         1 XX9       0.002300
     30 CAD         -2.2440     1.1310    -7.0080 c3         1 XX9      -0.001767
     31 CAE         -0.5280     2.4390    -5.7480 c3         1 XX9      -0.001767
     32 CAC         -0.0370     1.6410    -8.0640 c3         1 XX9      -0.001767
     33 H1           1.8840     0.0080     2.1310 ha         1 XX9       0.132000
     34 H2           6.3340    -0.8980     1.8940 h1         1 XX9       0.009367
     35 H3           6.3400     0.8710     1.8910 h1         1 XX9       0.009367
     36 H4           6.3330    -0.0100     3.4250 h1         1 XX9       0.009367
     37 H5           3.1320     0.8730     3.7070 h1         1 XX9       0.009367
     38 H6           3.1700    -0.8960     3.7380 h1         1 XX9       0.009367
     39 H7           4.4750     0.0310     4.4910 h1         1 XX9       0.009367
     40 H8           5.6020    -0.0140    -0.0040 ha         1 XX9       0.132000
     41 H9           2.2780    -3.1110    -3.3170 h1         1 XX9       0.042700
     42 H10          2.7260    -2.2540    -1.8350 h1         1 XX9       0.042700
     43 H11          1.3100    -2.2750     0.0830 ha         1 XX9       0.118000
     44 H12         -0.6070    -3.2960     1.2510 ha         1 XX9       0.103500
     45 H13         -2.2340    -4.6550    -0.0060 ha         1 XX9       0.102000
     46 H14         -1.9500    -4.9890    -2.4320 ha         1 XX9       0.103500
     47 H15         -0.0340    -3.9660    -3.6010 ha         1 XX9       0.118000
     48 H16          0.4640     0.9330    -4.3630 ha         1 XX9       0.217000
     49 H17          1.2490    -3.2570    -4.7560 ha         1 XX9       0.117000
     50 H18          0.2000    -3.2430    -6.9860 ha         1 XX9       0.105000
     51 H19         -0.8140    -2.0130    -8.5190 ho         1 XX9       0.394000
     52 H20         -2.7050     2.1040    -7.1240 hc         1 XX9       0.009700
     53 H21         -2.3910     0.5520    -7.9120 hc         1 XX9       0.009700
     54 H22         -2.6980     0.6140    -6.1710 hc         1 XX9       0.009700
     55 H23         -1.0360     2.2050    -4.8200 hc         1 XX9       0.009700
     56 H24          0.5320     2.5570    -5.5590 hc         1 XX9       0.009700
     57 H25         -0.9270     3.3610    -6.1550 hc         1 XX9       0.009700
     58 H26         -0.4370     1.0230    -8.8580 hc         1 XX9       0.009700
     59 H27          1.0250     1.4540    -7.9600 hc         1 XX9       0.009700
     60 H28         -0.1990     2.6850    -8.3030 hc         1 XX9       0.009700
@<TRIPOS>BOND
     1     1     2 1   
     2     2     3 ar  
     3     2    11 ar  
     4     3     4 ar  
     5     3    33 1   
     6     4     5 1   
     7     4     8 ar  
     8     5     6 1   
     9     5     7 1   
    10     6    34 1   
    11     6    35 1   
    12     6    36 1   
    13     7    37 1   
    14     7    38 1   
    15     7    39 1   
    16     8     9 ar  
    17     8    40 1   
    18     9    10 1   
    19     9    11 ar  
    20    11    12 1   
    21    12    13 2   
    22    12    14 1   
    23    14    15 1   
    24    14    22 1   
    25    15    16 1   
    26    15    41 1   
    27    15    42 1   
    28    16    17 ar  
    29    16    21 ar  
    30    17    18 ar  
    31    17    43 1   
    32    18    19 ar  
    33    18    44 1   
    34    19    20 ar  
    35    19    45 1   
    36    20    21 ar  
    37    20    46 1   
    38    21    47 1   
    39    22    23 ar  
    40    22    24 ar  
    41    23    28 ar  
    42    23    48 1   
    43    24    25 ar  
    44    24    49 1   
    45    25    26 ar  
    46    25    50 1   
    47    26    27 1   
    48    26    28 ar  
    49    27    51 1   
    50    28    29 1   
    51    29    30 1   
    52    29    31 1   
    53    29    32 1   
    54    30    52 1   
    55    30    53 1   
    56    30    54 1   
    57    31    55 1   
    58    31    56 1   
    59    31    57 1   
    60    32    58 1   
    61    32    59 1   
    62    32    60 1   
@<TRIPOS>SUBSTRUCTURE
     1 XX9         1 TEMP              0 ****  ****    0 ROOT
