@<TRIPOS>MOLECULE
XXB
   23    20     1     0     0
SMALL
bcc


@<TRIPOS>ATOM
      1 C1         -1.1220   -0.7000    0.9270 c         1 XXB      0.902800
      2 N1         -2.1880    1.4480    0.1050 ne        1 XXB     -0.586300
      3 O1          0.0030   -1.2430    1.1210 o         1 XXB     -0.838800
      4 C2         -1.2070    0.8270    0.9020 ce        1 XXB      0.038400
      5 N2         -0.9250   -4.0760    1.2660 n1        1 XXB     -0.808200
      6 O2         -2.1760   -1.3930    0.7900 o         1 XXB     -0.838800
      7 C3         -0.2800    1.5290    1.5820 c2        1 XXB     -0.251000
      8 C4         -0.8700   -5.2360    1.4380 c1        1 XXB      0.277800
      9 C6         -4.1940    0.8150    1.4870 c3        1 XXB     -0.199400
     10 C7         -3.7690   -2.2450   -1.9740 c2        1 XXB     -0.230000
     11 C8         -4.7680   -3.1000   -2.1480 c2        1 XXB     -0.230000
     12 H3         -0.2690    2.6220    1.6530 ha        1 XXB      0.107000
     13 H4          0.5330    0.9990    2.0940 ha        1 XXB      0.107000
     14 H5         -0.9700   -3.0970    1.1250 hn        1 XXB      0.507400
     15 H5A        -4.0780    1.9440   -0.3980 h4        1 XXB     -0.022200
     16 H6         -5.2920    0.8410    1.2900 hc        1 XXB      0.054700
     17 H6A        -3.9890    1.3680    2.4360 hc        1 XXB      0.054700
     18 H7         -3.8700   -0.2540    1.6180 hc        1 XXB      0.054700
     19 H7A        -3.2770   -2.0730   -0.9980 ha        1 XXB      0.114250
     20 H8         -3.3610   -1.6460   -2.8000 ha        1 XXB      0.114250
     21 H8A        -5.2500   -3.2670   -3.1190 ha        1 XXB      0.114250
     22 H8B        -5.1770   -3.7030   -1.3270 ha        1 XXB      0.114250
     23 C5         -3.4450    1.4280    0.3560 c2        1 XXB      0.446200
@<TRIPOS>BOND
     1    1    3 1   
     2    1    4 1   
     3    1    6 1   
     4    2    4 1   
     5    2   23 2   
     6    4    7 2   
     7    5    8 3   
     8    5   14 1   
     9    7   12 1   
    10    7   13 1   
    11    9   16 1   
    12    9   17 1   
    13    9   18 1   
    14    9   23 1   
    15   10   11 2   
    16   10   19 1   
    17   10   20 1   
    18   11   21 1   
    19   11   22 1   
    20   15   23 1   
@<TRIPOS>SUBSTRUCTURE
     1 XXB         1 TEMP              0 ****  ****    0 ROOT
