@<TRIPOS>MOLECULE
molecule
   23    23     1     0     0
SMALL
bcc


@<TRIPOS>ATOM
      1 C1           0.0000     0.0000     0.0000 c          1 XXB       0.909200
      2 N1          -2.0910     0.0000     1.4380 na         1 XXB       0.154400
      3 O1           1.2150     0.0000     0.0000 o          1 XXB      -0.834800
      4 C2          -0.7350     0.0000     1.2730 cc         1 XXB      -0.138900
      5 N2          -2.3740    -0.0020     2.6910 nc         1 XXB      -0.585800
      6 O2          -0.6740     0.0070    -1.1670 o          1 XXB      -0.834800
      7 C3          -0.1900    -0.0020     2.5470 cd         1 XXB      -0.321300
      8 C4          -1.2840    -0.0030     3.4160 cd         1 XXB       0.261200
      9 C6          -3.4170    -1.4330    -0.0350 c3         1 XXB      -0.094400
     10 C7          -4.4430    -1.4250    -1.1700 c3         1 XXB      -0.080400
     11 C8          -4.7850    -2.8660    -1.5570 c3         1 XXB      -0.089100
     12 H3           0.8600    -0.0030     2.8120 ha         1 XXB       0.154000
     13 H4          -1.2390    -0.0050     4.4990 h4         1 XXB       0.014100
     14 H5          -2.6600     0.5220    -0.5070 h1         1 XXB       0.075700
     15 H5A         -3.9720     0.5160     0.6800 h1         1 XXB       0.075700
     16 H6          -2.5190    -1.9430    -0.3630 hc         1 XXB       0.056200
     17 H6A         -3.8320    -1.9490     0.8230 hc         1 XXB       0.056200
     18 H7          -4.0290    -0.9090    -2.0280 hc         1 XXB       0.038200
     19 H7A         -5.3410    -0.9160    -0.8420 hc         1 XXB       0.038200
     20 H8          -3.8890    -3.3710    -1.8970 hc         1 XXB       0.025700
     21 H8A         -5.1880    -3.3850    -0.6960 hc         1 XXB       0.025700
     22 H8B         -5.5210    -2.8610    -2.3530 hc         1 XXB       0.025700
     23 C5          -3.0740     0.0070     0.3510 c3         1 XXB       0.069300
@<TRIPOS>BOND
     1     1     3 1
     2     1     4 1
     3     1     6 1
     4     2     4 1
     5     2     5 1
     6     2    23 1
     7     4     7 2
     8     5     8 2
     9     7     8 1
    10    23     9 1
    11     9    10 1
    12    10    11 1
    13     7    12 1
    14     8    13 1
    15    23    14 1
    16    23    15 1
    17     9    16 1
    18     9    17 1
    19    10    18 1
    20    10    19 1
    21    11    20 1
    22    11    21 1
    23    11    22 1
@<TRIPOS>SUBSTRUCTURE
     1 XXB         1 TEMP              0 ****  ****    0 ROOT
