@<TRIPOS>MOLECULE
molecule
   32    32     1     0     0
SMALL
bcc


@<TRIPOS>ATOM
      1 O2           0.0000     0.0000     0.0000 o          1 XXC      -0.858300
      2 C10          1.2090     0.0000     0.0000 c          1 XXC       0.890600
      3 O1           1.8800     0.0000     1.1620 o          1 XXC      -0.858300
      4 C6           1.9610    -0.0070    -1.3060 c3         1 XXC      -0.183400
      5 C4           0.9660    -0.0120    -2.4680 c3         1 XXC      -0.063400
      6 C2           1.7310    -0.0190    -3.7930 c3         1 XXC      -0.088400
      7 C1           0.7360    -0.0250    -4.9560 c3         1 XXC      -0.082400
      8 C3           1.5000    -0.0310    -6.2810 c3         1 XXC      -0.078400
      9 C5           0.5060    -0.0370    -7.4440 c3         1 XXC      -0.041100
     10 C7           1.2590    -0.0440    -8.7490 ca         1 XXC      -0.069300
     11 C9           1.6050    -1.2440    -9.3420 ca         1 XXC      -0.126500
     12 C12          2.2960    -1.2490   -10.5390 ca         1 XXC      -0.130000
     13 C13          2.6410    -0.0550   -11.1440 ca         1 XXC      -0.142000
     14 C11          2.2960     1.1450   -10.5510 ca         1 XXC      -0.130000
     15 C8           1.5980     1.1510    -9.3570 ca         1 XXC      -0.126500
     16 H2           2.5840     0.8780    -1.3680 hc         1 XXC       0.026700
     17 H3           2.5840    -0.8910    -1.3600 hc         1 XXC       0.026700
     18 H4           0.3430    -0.8960    -2.4060 hc         1 XXC       0.044700
     19 H5           0.3440     0.8730    -2.4150 hc         1 XXC       0.044700
     20 H6           2.3540     0.8650    -3.8550 hc         1 XXC       0.029700
     21 H7           2.3540    -0.9040    -3.8460 hc         1 XXC       0.029700
     22 H8           0.1130    -0.9090    -4.8930 hc         1 XXC       0.038700
     23 H9           0.1140     0.8600    -4.9020 hc         1 XXC       0.038700
     24 H10          2.1230     0.8530    -6.3430 hc         1 XXC       0.041200
     25 H11          2.1230    -0.9160    -6.3340 hc         1 XXC       0.041200
     26 H12         -0.1170     0.8480    -7.3910 hc         1 XXC       0.047700
     27 H13         -0.1170    -0.9210    -7.3820 hc         1 XXC       0.047700
     28 H14          1.3340    -2.1800    -8.8680 ha         1 XXC       0.132000
     29 H15          2.5670    -2.1900   -11.0040 ha         1 XXC       0.122000
     30 H16          3.1850    -0.0590   -12.0800 ha         1 XXC       0.120000
     31 H17          2.5640     2.0810   -11.0260 ha         1 XXC       0.122000
     32 H18          1.3280     2.0910    -8.8920 ha         1 XXC       0.132000
@<TRIPOS>BOND
     1     1     2 1
     2    14    15 ar
     3    14    13 ar
     4    15    10 ar
     5     5     4 1
     6     5     6 1
     7     2     4 1
     8     2     3 1
     9    13    12 ar
    10     6     7 1
    11    10     9 1
    12    10    11 ar
    13     7     8 1
    14    12    11 ar
    15     9     8 1
    16     4    16 1
    17     4    17 1
    18     5    18 1
    19     5    19 1
    20     6    20 1
    21     6    21 1
    22     7    22 1
    23     7    23 1
    24     8    24 1
    25     8    25 1
    26     9    26 1
    27     9    27 1
    28    11    28 1
    29    12    29 1
    30    13    30 1
    31    14    31 1
    32    15    32 1
@<TRIPOS>SUBSTRUCTURE
     1 XXC         1 TEMP              0 ****  ****    0 ROOT
