@<TRIPOS>MOLECULE
XXC
   32    32     1     0     0
SMALL
bcc


@<TRIPOS>ATOM
      1 O2          0.0920    1.0340    0.0630 o         1 XXC     -0.853300
      2 C10         1.1160    0.2900    0.0390 c         1 XXC      0.907600
      3 O1          1.5400   -0.3550    1.0400 o         1 XXC     -0.853300
      4 C6          1.9100    0.1760   -1.2750 c3        1 XXC     -0.194400
      5 C4          0.9920   -0.0420   -2.4520 c3        1 XXC     -0.065400
      6 C2          1.7340    0.0370   -3.7700 c3        1 XXC     -0.078400
      7 C1          0.8050   -0.1990   -4.9420 c3        1 XXC     -0.080400
      8 C3          1.5410   -0.1010   -6.2620 c3        1 XXC     -0.075400
      9 C5          0.6010   -0.3380   -7.4290 c3        1 XXC     -0.042100
     10 C7          1.2910   -0.1960   -8.7410 ca        1 XXC     -0.064300
     11 C9          1.5430   -1.3170   -9.5400 ca        1 XXC     -0.129500
     12 C12         2.1810   -1.1760  -10.7710 ca        1 XXC     -0.132000
     13 C13         2.5740    0.0860  -11.2160 ca        1 XXC     -0.143000
     14 C11         2.3270    1.2070  -10.4240 ca        1 XXC     -0.132000
     15 C8          1.6890    1.0680   -9.1940 ca        1 XXC     -0.129500
     16 H2          2.4860    1.1260   -1.4090 hc        1 XXC      0.018700
     17 H3          2.6450   -0.6630   -1.1920 hc        1 XXC      0.018700
     18 H4          0.1780    0.7310   -2.4210 hc        1 XXC      0.044200
     19 H5          0.4980   -1.0450   -2.3600 hc        1 XXC      0.044200
     20 H6          2.5580   -0.7240   -3.7850 hc        1 XXC      0.027200
     21 H7          2.2150    1.0450   -3.8700 hc        1 XXC      0.027200
     22 H8          0.3340   -1.2130   -4.8490 hc        1 XXC      0.036700
     23 H9         -0.0260    0.5540   -4.9160 hc        1 XXC      0.036700
     24 H10         2.0090    0.9140   -6.3590 hc        1 XXC      0.039700
     25 H11         2.3720   -0.8530   -6.2880 hc        1 XXC      0.039700
     26 H12         0.1510   -1.3630   -7.3390 hc        1 XXC      0.047700
     27 H13        -0.2450    0.4000   -7.3770 hc        1 XXC      0.047700
     28 H14         1.2370   -2.3150   -9.1920 ha        1 XXC      0.133500
     29 H15         2.3760   -2.0630  -11.3910 ha        1 XXC      0.124000
     30 H16         3.0780    0.1960  -12.1870 ha        1 XXC      0.122000
     31 H17         2.6380    2.2040  -10.7710 ha        1 XXC      0.124000
     32 H18         1.4970    1.9520   -8.5670 ha        1 XXC      0.133500
@<TRIPOS>BOND
     1    1    2 1   
     2    2    3 1   
     3    2    4 1   
     4    4    5 1   
     5    4   16 1   
     6    4   17 1   
     7    5    6 1   
     8    5   18 1   
     9    5   19 1   
    10    6    7 1   
    11    6   20 1   
    12    6   21 1   
    13    7    8 1   
    14    7   22 1   
    15    7   23 1   
    16    8    9 1   
    17    8   24 1   
    18    8   25 1   
    19    9   10 1   
    20    9   26 1   
    21    9   27 1   
    22   10   11 ar  
    23   10   15 ar  
    24   11   12 ar  
    25   11   28 1   
    26   12   13 ar  
    27   12   29 1   
    28   13   14 ar  
    29   13   30 1   
    30   14   15 ar  
    31   14   31 1   
    32   15   32 1   
@<TRIPOS>SUBSTRUCTURE
     1 XXC         1 TEMP              0 ****  ****    0 ROOT
