@<TRIPOS>MOLECULE
molecule
   20    19     1     0     0
SMALL
bcc


@<TRIPOS>ATOM
      1 O1           0.0000     0.0000     0.0000 oh         1 XXD      -0.613800
      2 O5           5.9560     0.4940     4.2310 oh         1 XXD      -0.610800
      3 O7           1.5620    -1.2210     2.0810 oh         1 XXD      -0.600800
      4 C10          5.4890     0.3770     2.8860 c3         1 XXD       0.141400
      5 C11          1.4290     0.0000     0.0000 c3         1 XXD       0.116400
      6 C13          1.9390     0.0000     1.4420 c3         1 XXD       0.153100
      7 C14          3.4650     0.1250     1.4440 c3         1 XXD      -0.083400
      8 C15          3.9640     0.2500     2.8840 c3         1 XXD      -0.079400
      9 HO1         -0.3140     0.0970    -0.8840 ho         1 XXD       0.405000
     10 HO5          6.8950     0.5710     4.2330 ho         1 XXD       0.401000
     11 HO7          0.7820    -1.0810     2.5930 ho         1 XXD       0.411000
     12 H10          5.7790     1.2570     2.3250 h1         1 XXD       0.018200
     13 H10A         5.9250    -0.5030     2.4280 h1         1 XXD       0.018200
     14 H11          1.7900     0.8850    -0.5110 h1         1 XXD       0.029200
     15 H11A         1.7900    -0.8850    -0.5110 h1         1 XXD       0.029200
     16 H13          1.5070     0.8370     1.9780 h1         1 XXD       0.043700
     17 H14          3.9000    -0.7550     0.9860 hc         1 XXD       0.050700
     18 H14A         3.7550     1.0060     0.8830 hc         1 XXD       0.050700
     19 H15          3.5280     1.1300     3.3420 hc         1 XXD       0.060200
     20 H15A         3.6740    -0.6300     3.4450 hc         1 XXD       0.060200
@<TRIPOS>BOND
     1     1     5 1
     2     2     4 1
     3     3     6 1
     4     4     8 1
     5     5     6 1
     6     6     7 1
     7     7     8 1
     8     1     9 1
     9     2    10 1
    10     3    11 1
    11     4    12 1
    12     4    13 1
    13     5    14 1
    14     5    15 1
    15     6    16 1
    16     7    17 1
    17     7    18 1
    18     8    19 1
    19     8    20 1
@<TRIPOS>SUBSTRUCTURE
     1 XXD         1 TEMP              0 ****  ****    0 ROOT
