@<TRIPOS>MOLECULE
molecule
   21    22     1     0     0
SMALL
bcc


@<TRIPOS>ATOM
      1 OAM          0.0000     0.0000     0.0000 o          1 XXE      -0.812800
      2 CAL          1.2150     0.0000     0.0000 c          1 XXE       0.779100
      3 OAN          1.8880     0.0000     1.1660 o          1 XXE      -0.812800
      4 CAH          1.9550    -0.0050    -1.2830 ca         1 XXE       0.434800
      5 CAG          1.2520    -0.0120    -2.4840 ca         1 XXE      -0.249300
      6 NAI          3.2840     0.0000    -1.2760 nb         1 XXE      -0.651000
      7 CAJ          3.9820     0.0000    -2.3900 ca         1 XXE       0.413200
      8 CAK          3.3560    -0.0050    -3.6240 ca         1 XXE      -0.310300
      9 CAF          1.9650    -0.0170    -3.6810 ca         1 XXE       0.007800
     10 NAA          1.2970    -0.0230    -4.9110 na         1 XXE       0.044800
     11 CAB          1.8930    -0.0180    -6.1410 cc         1 XXE      -0.148300
     12 CAC          0.9250    -0.0280    -7.0780 cd         1 XXE      -0.221000
     13 CAD         -0.3150    -0.0380    -6.4060 cd         1 XXE      -0.221000
     14 CAE         -0.0580    -0.0410    -5.0820 cc         1 XXE      -0.148300
     15 HAG          0.1690    -0.0210    -2.4880 ha         1 XXE       0.163000
     16 HAJ          5.0640     0.0070    -2.3420 h4         1 XXE       0.004100
     17 HAK          3.9410    -0.0070    -4.5350 ha         1 XXE       0.119000
     18 HAB          2.9590    -0.0090    -6.3290 h4         1 XXE       0.169000
     19 HAC          1.0720    -0.0250    -8.1520 ha         1 XXE       0.136000
     20 HAD         -1.2940    -0.0480    -6.8690 ha         1 XXE       0.136000
     21 HAE         -0.7990    -0.0480    -4.2910 h4         1 XXE       0.169000
@<TRIPOS>BOND
     1     7     6 ar
     2     7     8 ar
     3     6     4 ar
     4     8     9 ar
     5     4     5 ar
     6     4     2 1
     7     9     5 ar
     8     9    10 1
     9     1     2 1
    10    14    10 1
    11    14    13 2
    12     2     3 1
    13    10    11 1
    14    13    12 1
    15    11    12 2
    16     5    15 1
    17     7    16 1
    18     8    17 1
    19    11    18 1
    20    12    19 1
    21    13    20 1
    22    14    21 1
@<TRIPOS>SUBSTRUCTURE
     1 XXE         1 TEMP              0 ****  ****    0 ROOT
