@<TRIPOS>MOLECULE
XXG
   18    18     1     0     0
SMALL
bcc


@<TRIPOS>ATOM
      1 O7         -0.0040    0.3320    0.0340 o         1 XXG     -0.562100
      2 C1          1.2020    0.0540    0.0240 c         1 XXG      0.583300
      3 C2          1.9830    0.0780    1.3550 c3        1 XXG      0.263800
      4 O13         1.5870   -1.0840    2.0680 oh        1 XXG     -0.616300
      5 O8          1.5490    1.1360    2.1870 oh        1 XXG     -0.616300
      6 C3          3.4760    0.1730    1.1930 c2        1 XXG     -0.072200
      7 C6          1.9600   -0.2770   -1.1770 ce        1 XXG     -0.302200
      8 C5          3.3070   -0.3220   -1.1690 cf        1 XXG      0.033000
      9 C4          4.0840   -0.0380    0.0190 cf        1 XXG     -0.245100
     10 S9          5.8740    0.0050   -0.1430 s6        1 XXG      1.454700
     11 O12         6.3380   -0.3790    1.1310 o         1 XXG     -0.738533
     12 O10         6.1340   -0.9230   -1.1740 o         1 XXG     -0.738533
     13 O11         6.1680    1.3370   -0.4890 o         1 XXG     -0.738533
     14 HO13        2.2110   -1.1980    2.7960 ho        1 XXG      0.418500
     15 HO8         0.5820    1.1330    2.1660 ho        1 XXG      0.418500
     16 H5          3.8840   -0.5780   -2.0770 ha        1 XXG      0.161000
     17 H3          4.0380    0.3940    2.1150 ha        1 XXG      0.161000
     18 H6          1.3700   -0.4680   -2.0840 ha        1 XXG      0.137000
@<TRIPOS>BOND
     1    1    2 2   
     2    2    3 1   
     3    2    7 1   
     4    3    4 1   
     5    3    5 1   
     6    3    6 1   
     7    4   14 1   
     8    5   15 1   
     9    6    9 2   
    10    6   17 1   
    11    7    8 2   
    12    7   18 1   
    13    8    9 1   
    14    8   16 1   
    15    9   10 1   
    16   10   11 1   
    17   10   12 1   
    18   10   13 1   
@<TRIPOS>SUBSTRUCTURE
     1 XXG         1 TEMP              0 ****  ****    0 ROOT
