@<TRIPOS>MOLECULE
molecule
   18    18     1     0     0
SMALL
bcc


@<TRIPOS>ATOM
      1 O7           0.0000     0.0000     0.0000 o          1 XXG      -0.534100
      2 C1           1.2150     0.0000     0.0000 c          1 XXG       0.614300
      3 C2           1.9910     0.0000     1.3000 c3         1 XXG       0.280800
      4 O13          1.5960    -1.1530     2.0450 oh         1 XXG      -0.616300
      5 O8           1.5960     1.1530     2.0450 oh         1 XXG      -0.616300
      6 C3           3.5010     0.0010     1.2140 c2         1 XXG      -0.087200
      7 C6           1.9380    -0.0040    -1.2100 ce         1 XXG      -0.315200
      8 C5           3.2890    -0.0040    -1.2130 cf         1 XXG       0.049000
      9 C4           4.0780     0.0010     0.0100 cf         1 XXG      -0.251100
     10 S9           5.8360     0.0020    -0.1020 s6         1 XXG       1.309700
     11 O12          6.3220     0.0860     1.2300 o          1 XXG      -0.702867
     12 O10          6.2550    -1.3630    -0.6280 o          1 XXG      -0.702867
     13 O11          6.1740     0.9410    -1.1130 o          1 XXG      -0.702867
     14 HO13         1.2050    -0.8820     2.8590 ho         1 XXG       0.407000
     15 HO8          1.9740     1.1140     2.9080 ho         1 XXG       0.407000
     16 H5           3.8060    -0.0050    -2.1650 ha         1 XXG       0.150000
     17 H3           4.1040     0.0040     2.1140 ha         1 XXG       0.169000
     18 H6           1.4020    -0.0080    -2.1510 ha         1 XXG       0.141000
@<TRIPOS>BOND
     1     1     2 2
     2     2     7 1
     3     2     3 1
     4     3     4 1
     5     4    14 1
     6     5     3 1
     7     5    15 1
     8     6     3 1
     9     6     9 2
    10     8     7 2
    11     8    16 1
    12     9     8 1
    13    10     9 1
    14    10    12 1
    15    11    10 1
    16    13    10 1
    17     6    17 1
    18     7    18 1
@<TRIPOS>SUBSTRUCTURE
     1 XXG         1 TEMP              0 ****  ****    0 ROOT
