@<TRIPOS>MOLECULE
molecule
   16    16     1     0     0
SMALL
bcc


@<TRIPOS>ATOM
      1 O3           0.0000     0.0000     0.0000 o          1 XXH      -0.506100
      2 C4           1.9490     0.0000     1.2750 ca         1 XXH      -0.159600
      3 C5           1.2130     0.0000     0.0000 c          1 XXH       0.574500
      4 C6           3.3470     0.0000     1.2780 ca         1 XXH      -0.087000
      5 C7           4.0300     0.0060     2.4770 ca         1 XXH      -0.084500
      6 C3           1.2530     0.0040     2.4880 ca         1 XXH      -0.087000
      7 C2           1.9500     0.0090     3.6780 ca         1 XXH      -0.084500
      8 C1           3.3340     0.0100     3.6740 ca         1 XXH      -0.130200
      9 O1           5.2920     0.0150     4.9560 o          1 XXH      -0.199000
     10 O2           3.4650     0.0180     6.0100 o          1 XXH      -0.199000
     11 H1           1.7540     0.0000    -0.9380 h4         1 XXH       0.011200
     12 H2           3.8930    -0.0030     0.3430 ha         1 XXH       0.160000
     13 H3           5.1130     0.0060     2.4820 ha         1 XXH       0.171000
     14 H4           0.1700     0.0030     2.4930 ha         1 XXH       0.160000
     15 H5           1.4120     0.0120     4.6180 ha         1 XXH       0.171000
     16 N1           4.0740     0.0150     4.9550 no         1 XXH       0.289200
@<TRIPOS>BOND
     1     1     3 2
     2     3     2 1
     3     2     4 ar
     4     2     6 ar
     5     4     5 ar
     6     6     7 ar
     7     5     8 ar
     8     7     8 ar
     9     8    16 1
    10    16     9 1
    11    16    10 1
    12     3    11 1
    13     4    12 1
    14     5    13 1
    15     6    14 1
    16     7    15 1
@<TRIPOS>SUBSTRUCTURE
     1 XXH         1 TEMP              0 ****  ****    0 ROOT
