@<TRIPOS>MOLECULE
molecule
   57    60     1     0     0
SMALL
bcc


@<TRIPOS>ATOM
      1 NAA          0.0000     0.0000     0.0000 nz         1 XXJ      -0.660400
      2 OAB         -1.6280    -0.1210     1.9320 o          1 XXJ      -0.678100
      3 OAC          1.4270     0.0010     4.4610 o          1 XXJ      -0.575500
      4 OAD          4.3580    -0.9510    -5.5440 o          1 XXJ      -0.603800
      5 OAE          6.7020    -0.9530    -4.7540 o          1 XXJ      -0.603800
      6 OAF          3.9990     0.0010     3.9140 oh         1 XXJ      -0.304100
      7 CAI          5.7280    -5.8260    -5.7500 ca         1 XXJ      -0.067000
      8 CAJ          4.5390    -5.1560    -5.9670 ca         1 XXJ      -0.150000
      9 CAK          6.8080    -5.1580    -5.2020 ca         1 XXJ      -0.150000
     10 CAL         -3.0360     1.5800     7.8910 ca         1 XXJ      -0.181000
     11 CAM          4.4290    -3.8180    -5.6390 ca         1 XXJ      -0.035500
     12 CAN          6.6980    -3.8190    -4.8740 ca         1 XXJ      -0.035500
     13 CAO         -2.9750     1.4010     6.5210 ca         1 XXJ      -0.057000
     14 CAP          5.0580     0.0000     0.0000 ca         1 XXJ       0.523200
     15 CAQ         -2.1280    -0.6150     8.2180 ca         1 XXJ      -0.207000
     16 CAR          2.7940     0.0010    -0.7650 ca         1 XXJ      -0.069000
     17 CAT         -2.4280     0.0220     4.5060 c3         1 XXJ       0.161300
     18 CAU          4.7900    -1.4420    -2.9570 c3         1 XXJ      -0.223600
     19 NAV          4.6660     0.0000     1.2560 nb         1 XXJ      -0.679000
     20 NAW         -1.0380     0.1400     4.0580 ns         1 XXJ      -0.513900
     21 CAY         -2.6110     0.5720     8.7410 ca         1 XXJ       0.187900
     22 CAZ          4.1470     0.0000    -1.0460 ca         1 XXJ      -0.190600
     23 CBA          0.9820     0.0000     0.9530 cc         1 XXJ       0.066800
     24 CBB         -2.0690    -0.7930     6.8460 ca         1 XXJ       0.181900
     25 CBC         -2.4930     0.2160     5.9990 ca         1 XXJ      -0.195300
     26 CBD          5.5090    -3.1500    -5.0930 ca         1 XXJ      -0.286500
     27 CBE          0.6640     0.0010     2.3180 cd         1 XXJ      -0.177400
     28 CBF          1.7080     0.0000     3.2750 c          1 XXJ       0.711700
     29 CBG          2.4000     0.0000     0.5780 ca         1 XXJ      -0.271100
     30 CBH          3.3810     0.0010     1.5870 ca         1 XXJ       0.607200
     31 NBI          3.0000     0.0010     2.9100 n          1 XXJ      -0.269800
     32 SBJ          5.3700    -1.4430    -4.6760 sy         1 XXJ       1.195300
     33 HNAA        -0.6430     0.7450     0.1830 hn         1 XXJ       0.475467
     34 HNAB        -0.4870    -0.8740     0.0230 hn         1 XXJ       0.475467
     35 HOAF         4.1620     0.8860     4.1940 ho         1 XXJ       0.429000
     36 HAI          5.8170    -6.8720    -6.0160 ha         1 XXJ       0.143000
     37 HAJ          3.6880    -5.6840    -6.3810 ha         1 XXJ       0.144500
     38 HAK          7.7170    -5.7200    -5.0300 ha         1 XXJ       0.144500
     39 HAL         -3.4140     2.5090     8.2990 ha         1 XXJ       0.162000
     40 HAM          3.5060    -3.2860    -5.8330 ha         1 XXJ       0.153000
     41 HAN          7.6590    -3.4820    -4.5050 ha         1 XXJ       0.153000
     42 HAO         -3.3070     2.1900     5.8570 ha         1 XXJ       0.147000
     43 HAP          6.1180    -0.0010    -0.2230 h4         1 XXJ       0.065100
     44 HAQ         -1.8070    -1.4080     8.8820 ha         1 XXJ       0.173000
     45 HAR          2.0600     0.0010    -1.5620 ha         1 XXJ       0.133000
     46 HAS          3.9070     0.5120    -3.0980 hc         1 XXJ       0.078200
     47 HASA         5.5830     0.5100    -2.5330 hc         1 XXJ       0.078200
     48 HAT         -2.8070    -0.9600     4.2520 h1         1 XXJ       0.073700
     49 HATA        -3.0300     0.7790     4.0170 h1         1 XXJ       0.073700
     50 HAU          3.8360    -1.9520    -2.8970 h1         1 XXJ       0.100200
     51 HAUA         5.5130    -1.9530    -2.3320 h1         1 XXJ       0.100200
     52 HNAW        -0.3200     0.3750     4.7140 hn         1 XXJ       0.370500
     53 CAX         -0.7370     0.0020     2.7520 c          1 XXJ       0.665300
     54 FAH         -1.5970    -1.9520     6.3350 f          1 XXJ      -0.128900
     55 HAA3         0.4120     0.1210    -0.9040 hn         1 XXJ       0.475467
     56 CAS          4.6290     0.0000    -2.4730 c3         1 XXJ      -0.016100
     57 FAG         -2.6700     0.7470    10.0790 f          1 XXJ      -0.116900
@<TRIPOS>BOND
     1     1    23 1
     2     2    53 2
     3     3    28 2
     4     4    32 2
     5     5    32 2
     6     6    31 1
     7    57    21 1
     8    54    24 1
     9     7     8 ar
    10     7     9 ar
    11     8    11 ar
    12     9    12 ar
    13    10    13 ar
    14    10    21 ar
    15    11    26 ar
    16    12    26 ar
    17    13    25 ar
    18    14    19 ar
    19    14    22 ar
    20    15    21 ar
    21    15    24 ar
    22    16    22 ar
    23    16    29 ar
    24    56    18 1
    25    56    22 1
    26    17    20 1
    27    17    25 1
    28    18    32 1
    29    19    30 ar
    30    20    53 1
    31    53    27 1
    32    23    27 2
    33    23    29 1
    34    24    25 ar
    35    26    32 1
    36    27    28 1
    37    28    31 1
    38    29    30 ar
    39    30    31 1
    40     1    33 1
    41     1    34 1
    42     6    35 1
    43     7    36 1
    44     8    37 1
    45     9    38 1
    46    10    39 1
    47    11    40 1
    48    12    41 1
    49    13    42 1
    50    14    43 1
    51    15    44 1
    52    16    45 1
    53    56    46 1
    54    56    47 1
    55    17    48 1
    56    17    49 1
    57    18    50 1
    58    18    51 1
    59    20    52 1
    60    55     1 1
@<TRIPOS>SUBSTRUCTURE
     1 XXJ         1 TEMP              0 ****  ****    0 ROOT
