@<TRIPOS>MOLECULE
XXJ
   57    60     1     0     0
SMALL
bcc


@<TRIPOS>ATOM
      1 NAA          0.0000     0.0000     0.0000 nz         1 XXJ       0.257600
      2 OAB         -1.6280    -0.1210     1.9320 o          1 XXJ      -0.732100
      3 OAC          1.4270     0.0010     4.4610 o          1 XXJ      -0.636500
      4 OAD          4.3580    -0.9510    -5.5440 o          1 XXJ      -0.574800
      5 OAE          6.7020    -0.9530    -4.7540 o          1 XXJ      -0.574800
      6 OAF          3.9990     0.0010     3.9140 oh         1 XXJ      -0.403100
      7 CAI          5.7280    -5.8260    -5.7500 ca         1 XXJ      -0.039000
      8 CAJ          4.5390    -5.1560    -5.9670 ca         1 XXJ      -0.132500
      9 CAK          6.8080    -5.1580    -5.2020 ca         1 XXJ      -0.132500
     10 CAL         -3.0360     1.5800     7.8910 ca         1 XXJ      -0.140000
     11 CAM          4.4290    -3.8180    -5.6390 ca         1 XXJ      -0.002500
     12 CAN          6.6980    -3.8190    -4.8740 ca         1 XXJ      -0.002500
     13 CAO         -2.9750     1.4010     6.5210 ca         1 XXJ      -0.027000
     14 CAP          5.0580     0.0000     0.0000 ca         1 XXJ       0.498200
     15 CAQ         -2.1280    -0.6150     8.2180 ca         1 XXJ      -0.161000
     16 CAR          2.7940     0.0010    -0.7650 ca         1 XXJ      -0.052000
     17 CAT         -2.4280     0.0220     4.5060 c3         1 XXJ       0.108300
     18 CAU          4.7900    -1.4420    -2.9570 c3         1 XXJ      -0.018600
     19 NAV          4.6660     0.0000     1.2560 nb         1 XXJ      -0.556000
     20 NAW         -1.0380     0.1400     4.0580 ns         1 XXJ      -0.103900
     21 CAY         -2.6110     0.5720     8.7410 ca         1 XXJ       0.162900
     22 CAZ          4.1470     0.0000    -1.0460 ca         1 XXJ      -0.187600
     23 CBA          0.9820     0.0000     0.9530 cc         1 XXJ      -0.190200
     24 CBB         -2.0690    -0.7930     6.8460 ca         1 XXJ       0.153900
     25 CBC         -2.4930     0.2160     5.9990 ca         1 XXJ      -0.196300
     26 CBD          5.5090    -3.1500    -5.0930 ca         1 XXJ      -0.143500
     27 CBE          0.6640     0.0010     2.3180 cd         1 XXJ      -0.129400
     28 CBF          1.7080     0.0000     3.2750 c          1 XXJ       0.582700
     29 CBG          2.4000     0.0000     0.5780 ca         1 XXJ      -0.244100
     30 CBH          3.3810     0.0010     1.5870 ca         1 XXJ       0.380200
     31 NBI          3.0000     0.0010     2.9100 n          1 XXJ       0.196200
     32 SBJ          5.3700    -1.4430    -4.6760 sy         1 XXJ       0.880300
     33 HNAA        -0.6430     0.7450     0.1830 hn         1 XXJ       0.230467
     34 HNAB        -0.4870    -0.8740     0.0230 hn         1 XXJ       0.230467
     35 HOAF         4.1620     0.8860     4.1940 ho         1 XXJ       0.425000
     36 HAI          5.8170    -6.8720    -6.0160 ha         1 XXJ       0.109000
     37 HAJ          3.6880    -5.6840    -6.3810 ha         1 XXJ       0.114500
     38 HAK          7.7170    -5.7200    -5.0300 ha         1 XXJ       0.114500
     39 HAL         -3.4140     2.5090     8.2990 ha         1 XXJ       0.133000
     40 HAM          3.5060    -3.2860    -5.8330 ha         1 XXJ       0.123000
     41 HAN          7.6590    -3.4820    -4.5050 ha         1 XXJ       0.123000
     42 HAO         -3.3070     2.1900     5.8570 ha         1 XXJ       0.114000
     43 HAP          6.1180    -0.0010    -0.2230 h4         1 XXJ       0.010100
     44 HAQ         -1.8070    -1.4080     8.8820 ha         1 XXJ       0.145000
     45 HAR          2.0600     0.0010    -1.5620 ha         1 XXJ       0.111000
     46 HAS          3.9070     0.5120    -3.0980 hc         1 XXJ       0.044700
     47 HASA         5.5830     0.5100    -2.5330 hc         1 XXJ       0.044700
     48 HAT         -2.8070    -0.9600     4.2520 h1         1 XXJ       0.043700
     49 HATA        -3.0300     0.7790     4.0170 h1         1 XXJ       0.043700
     50 HAU          3.8360    -1.9520    -2.8970 h1         1 XXJ       0.065700
     51 HAUA         5.5130    -1.9530    -2.3320 h1         1 XXJ       0.065700
     52 HNAW        -0.3200     0.3750     4.7140 hn         1 XXJ       0.240500
     53 CAX         -0.7370     0.0020     2.7520 c          1 XXJ       0.567300
     54 FAH         -1.5970    -1.9520     6.3350 f          1 XXJ      -0.120900
     55 HAA3         0.4120     0.1210    -0.9040 hn         1 XXJ       0.230467
     56 CAS          4.6290     0.0000    -2.4730 c3         1 XXJ       0.063900
     57 FAG         -2.6700     0.7470    10.0790 f          1 XXJ      -0.110900
@<TRIPOS>BOND
     1     1    23 1   
     2     1    33 1   
     3     1    34 1   
     4     1    55 1   
     5     2    53 2   
     6     3    28 2   
     7     4    32 2   
     8     5    32 2   
     9     6    31 1   
    10     6    35 1   
    11     7     8 ar  
    12     7     9 ar  
    13     7    36 1   
    14     8    11 ar  
    15     8    37 1   
    16     9    12 ar  
    17     9    38 1   
    18    10    13 ar  
    19    10    21 ar  
    20    10    39 1   
    21    11    26 ar  
    22    11    40 1   
    23    12    26 ar  
    24    12    41 1   
    25    13    25 ar  
    26    13    42 1   
    27    14    19 ar  
    28    14    22 ar  
    29    14    43 1   
    30    15    21 ar  
    31    15    24 ar  
    32    15    44 1   
    33    16    22 ar  
    34    16    29 ar  
    35    16    45 1   
    36    17    20 1   
    37    17    25 1   
    38    17    48 1   
    39    17    49 1   
    40    18    32 1   
    41    18    50 1   
    42    18    51 1   
    43    18    56 1   
    44    19    30 ar  
    45    20    52 1   
    46    20    53 1   
    47    21    57 1   
    48    22    56 1   
    49    23    27 2   
    50    23    29 1   
    51    24    25 ar  
    52    24    54 1   
    53    26    32 1   
    54    27    28 1   
    55    27    53 1   
    56    28    31 1   
    57    29    30 ar  
    58    30    31 1   
    59    46    56 1   
    60    47    56 1   
@<TRIPOS>SUBSTRUCTURE
     1 XXJ         1 TEMP              0 ****  ****    0 ROOT
