@<TRIPOS>MOLECULE
XXK
   44    48     1     0     0
SMALL
bcc


@<TRIPOS>ATOM
      1 O25         0.5050    1.6890    0.4030 oh        1 XXK     -0.499100
      2 C24         1.6590    0.9550    0.2380 ca        1 XXK      0.153100
      3 C23         2.1120    0.2620    1.3650 ca        1 XXK     -0.212000
      4 C22         3.2910   -0.5080    1.2740 ca        1 XXK      0.168600
      5 C21         3.9780   -0.5740    0.0360 ca        1 XXK     -0.188000
      6 C26         2.3370    0.8980   -0.9870 ca        1 XXK     -0.219000
      7 C20         3.4980    0.1260   -1.0680 cp        1 XXK     -0.060500
      8 C19         4.2370    0.0500   -2.3630 cp        1 XXK      0.715500
      9 N10         5.5990    0.2300   -2.3060 nb        1 XXK     -0.664000
     10 C09         6.2140    0.1530   -3.4980 cp        1 XXK      0.476800
     11 C05         7.6120    0.2900   -3.8780 cp        1 XXK     -0.307800
     12 C04         8.8080    0.5350   -3.2160 ca        1 XXK     -0.012000
     13 C03         9.9690    0.5890   -3.9940 ca        1 XXK     -0.275300
     14 C02         9.8910    0.3970   -5.3880 ca        1 XXK      0.428200
     15 N18         3.4820   -0.2010   -3.4750 nb        1 XXK     -0.731000
     16 C11         4.0990   -0.2710   -4.7010 ca        1 XXK      0.687200
     17 C08         5.5080   -0.0970   -4.7250 ca        1 XXK     -0.197500
     18 O07         6.3620   -0.1230   -5.8360 os        1 XXK     -0.287400
     19 C06         7.6490    0.1110   -5.3090 ca        1 XXK      0.590600
     20 N01         8.7550    0.1570   -6.0800 nb        1 XXK     -0.647000
     21 N12         3.3520   -0.4090   -5.8900 nh        1 XXK     -0.724300
     22 C17         1.9000   -0.4390   -5.7600 c3        1 XXK      0.151300
     23 C16         1.2000   -0.4070   -7.1250 c3        1 XXK      0.121900
     24 O15         1.6930   -1.4170   -7.9960 os        1 XXK     -0.411600
     25 C14         3.0980   -1.3120   -8.1870 c3        1 XXK      0.121900
     26 C13         3.8580   -1.3770   -6.8560 c3        1 XXK      0.151300
     27 N28         3.8140   -1.1360    2.4070 nh        1 XXK     -0.822200
     28 H1          0.3040    2.1200   -0.4400 ho        1 XXK      0.421000
     29 H2          1.5470    0.3390    2.3050 ha        1 XXK      0.152000
     30 H3          4.9010   -1.1680   -0.0490 ha        1 XXK      0.147000
     31 H4          1.9580    1.4450   -1.8600 ha        1 XXK      0.146000
     32 H5          8.8350    0.6820   -2.1260 ha        1 XXK      0.162000
     33 H6         10.9440    0.7800   -3.5250 ha        1 XXK      0.152000
     34 H7         10.8050    0.4380   -6.0110 h4        1 XXK      0.032100
     35 H8          1.5630   -1.3590   -5.2020 h1        1 XXK      0.063200
     36 H9          1.5720    0.4670   -5.1780 h1        1 XXK      0.063200
     37 H10         0.1120   -0.6510   -6.9980 h1        1 XXK      0.059950
     38 H11         1.3170    0.5980   -7.6100 h1        1 XXK      0.059950
     39 H12         3.3360   -0.3610   -8.7340 h1        1 XXK      0.059950
     40 H13         3.3650   -2.2000   -8.8180 h1        1 XXK      0.059950
     41 H14         3.7740   -2.4250   -6.4450 h1        1 XXK      0.063200
     42 H15         4.9430   -1.1630   -7.0660 h1        1 XXK      0.063200
     43 H16         3.1500   -1.3230    3.1240 hn        1 XXK      0.395300
     44 H17         4.4270   -1.8960    2.2170 hn        1 XXK      0.395300
@<TRIPOS>BOND
     1    1    2 1
     2    1   28 1
     3    2    3 ar
     4    2    6 ar
     5    3    4 ar
     6    3   29 1
     7    4    5 ar
     8    4   27 1
     9    5    7 ar
    10    5   30 1
    11    6    7 ar
    12    6   31 1
    13    7    8 1
    14    8    9 ar
    15    8   15 ar
    16    9   10 ar
    17   10   11 1
    18   10   17 ar
    19   11   12 ar
    20   11   19 ar
    21   12   13 ar
    22   12   32 1
    23   13   14 ar
    24   13   33 1
    25   14   20 ar
    26   14   34 1
    27   15   16 ar
    28   16   17 ar
    29   16   21 1
    30   17   18 1
    31   18   19 1
    32   19   20 ar
    33   21   22 1
    34   21   26 1
    35   22   23 1
    36   22   35 1
    37   22   36 1
    38   23   24 1
    39   23   37 1
    40   23   38 1
    41   24   25 1
    42   25   26 1
    43   25   39 1
    44   25   40 1
    45   26   41 1
    46   26   42 1
    47   27   43 1
    48   27   44 1
@<TRIPOS>SUBSTRUCTURE
     1 XXK         1 TEMP              0 ****  ****    0 ROOT
