@<TRIPOS>MOLECULE
molecule
   30    31     1     0     0
SMALL
bcc


@<TRIPOS>ATOM
      1 C            0.0000     0.0000     0.0000 c          1 XXL       0.609100
      2 N            0.1980     0.0010     2.4180 n          1 XXL      -0.360000
      3 O            1.2080     0.0000     0.0000 o          1 XXL      -0.535000
      4 CA          -0.7540     0.0000     1.3050 c3         1 XXL       0.064000
      5 CAA         -0.8130     0.0150    -3.5930 c3         1 XXL      -0.096100
      6 CAD          1.5720    -3.5710     4.0710 ca         1 XXL      -0.125000
      7 CAE          0.9430    -3.5810     2.8400 ca         1 XXL      -0.122000
      8 CAF          1.7520    -2.3810     4.7520 ca         1 XXL      -0.120000
      9 CAG          0.4840    -2.4010     2.2850 ca         1 XXL      -0.137000
     10 CAI          1.6520     1.1460     4.0600 c3         1 XXL       0.079400
     11 OAK         -0.6720     0.0050    -1.1620 os         1 XXL      -0.431900
     12 OAL          1.4570    -0.0210     4.8620 os         1 XXL      -0.323900
     13 CAN          0.6440     1.1660     2.9390 c          1 XXL       0.680500
     14 CAO          1.2920    -1.1970     4.2050 ca         1 XXL       0.095100
     15 CAP          0.6570    -1.2070     2.9640 ca         1 XXL       0.009600
     16 HA          -1.3770     0.8840     1.3620 h1         1 XXL       0.097200
     17 HAA         -1.3760    -0.8850     1.3630 h1         1 XXL       0.097200
     18 HAAA        -0.2230     0.0200    -4.5020 hc         1 XXL       0.048367
     19 HAAB        -1.4080     0.9190    -3.5450 hc         1 XXL       0.048367
     20 HAAC        -1.4670    -0.8480    -3.5920 hc         1 XXL       0.048367
     21 HAD          1.9300    -4.4990     4.5020 ha         1 XXL       0.138000
     22 HAE          0.8050    -4.5160     2.3120 ha         1 XXL       0.136000
     23 HAF          2.2450    -2.3770     5.7160 ha         1 XXL       0.149000
     24 HAG         -0.0080    -2.4110     1.3200 ha         1 XXL       0.136000
     25 HAH          0.7450    -0.8730    -2.4080 h1         1 XXL       0.050700
     26 HAHA         0.7440     0.8960    -2.4010 h1         1 XXL       0.050700
     27 HAI          2.6520     1.1320     3.6430 h1         1 XXL       0.090200
     28 HAIA         1.5240     2.0290     4.6740 h1         1 XXL       0.090200
     29 OAC          0.2340     2.2220     2.5070 o          1 XXL      -0.615500
     30 CAH          0.1190     0.0110    -2.3800 c3         1 XXL       0.147400
@<TRIPOS>BOND
     1     1     3 2
     2     1     4 1
     3     1    11 1
     4     2     4 1
     5     2    13 1
     6     2    15 1
     7     5    30 1
     8    29    13 2
     9     6     7 ar
    10     6     8 ar
    11     7     9 ar
    12     8    14 ar
    13     9    15 ar
    14    30    11 1
    15    10    12 1
    16    10    13 1
    17    12    14 1
    18    14    15 ar
    19     4    16 1
    20     4    17 1
    21     5    18 1
    22     5    19 1
    23     5    20 1
    24     6    21 1
    25     7    22 1
    26     8    23 1
    27     9    24 1
    28    30    25 1
    29    30    26 1
    30    10    27 1
    31    10    28 1
@<TRIPOS>SUBSTRUCTURE
     1 XXL         1 TEMP              0 ****  ****    0 ROOT
