@<TRIPOS>MOLECULE
molecule
   17    16     1     0     0
SMALL
bcc


@<TRIPOS>ATOM
      1 O8           0.0000     0.0000     0.0000 o          1 XXP      -0.220000
      2 N7           1.2350     0.0000     0.0000 no         1 XXP       0.259100
      3 O9           1.9640     0.0000     0.9980 o          1 XXP      -0.220000
      4 C5           1.8830     0.0010    -1.2750 ce         1 XXP      -0.051100
      5 C6           1.1620     0.6190    -2.2170 c2         1 XXP      -0.028900
      6 O10          1.5640     0.7540    -3.5200 oh         1 XXP      -0.479100
      7 C4           3.1770    -0.6210    -1.4440 ce         1 XXP      -0.277000
      8 C3           4.2000    -0.1590    -2.1770 cf         1 XXP      -0.139200
      9 C2           4.0580     1.1170    -2.9160 c          1 XXP       0.485300
     10 O11          3.3790     2.0720    -2.5750 o          1 XXP      -0.518100
     11 C1           4.8500     1.2390    -4.1800 c          1 XXP       0.843600
     12 O12          5.5710     0.3480    -4.5810 o          1 XXP      -0.743800
     13 O13          4.6460     2.4470    -4.7230 o          1 XXP      -0.743800
     14 H6           0.2030     1.0400    -1.9400 h4         1 XXP       0.151000
     15 HO10         0.8110     0.7230    -4.0870 ho         1 XXP       0.425000
     16 H4           3.0250     0.3970    -1.1080 ha         1 XXP       0.142000
     17 H3           3.6790    -0.0540    -3.1210 ha         1 XXP       0.115000
@<TRIPOS>BOND
     1     1     2 1
     2     2     4 1
     3     2     3 1
     4     4     7 1
     5     4     5 2
     6     5     6 1
     7     5    14 1
     8     6    15 1
     9     7     8 2
    10     7    16 1
    11     8     9 1
    12     8    17 1
    13     9    10 2
    14     9    11 1
    15    11    12 1
    16    11    13 1
@<TRIPOS>SUBSTRUCTURE
     1 XXP         1 TEMP              0 ****  ****    0 ROOT
