@<TRIPOS>MOLECULE
XXP
   17    16     1     0     0
SMALL
bcc


@<TRIPOS>ATOM
      1 O8         -0.1320   -0.2910    0.2110 o         1 XXP     -0.574200
      2 N7          1.0500   -0.4820    0.0590 no        1 XXP      0.866400
      3 O9          1.6570   -1.1070    0.9100 o         1 XXP     -0.574200
      4 C5          1.7680    0.0120   -1.1130 c2        1 XXP     -0.412000
      5 C6          0.9640    0.6910   -2.0550 c1        1 XXP     -0.047000
      6 O10         1.5930    1.0910   -3.1850 oh        1 XXP     -0.315000
      7 C4          3.1640   -0.3020   -1.1650 c2        1 XXP      0.072000
      8 C3          4.1380    0.2020   -1.9540 c2        1 XXP     -0.391000
      9 C2          4.0740    1.3230   -2.8730 c2        1 XXP      0.300000
     10 O11         3.7240    2.4810   -2.6430 o         1 XXP     -0.271000
     11 C1          4.5600    0.9620   -4.2670 c2        1 XXP      0.259000
     12 O12         5.6870    1.1250   -4.7390 o         1 XXP     -0.338000
     13 O13         3.6820    0.3670   -5.1250 oh        1 XXP     -0.308000
     14 H6          0.9160    1.5790   -3.6760 ho        1 XXP      0.228000
     15 HO10        2.8330    0.2330   -4.6710 ho        1 XXP      0.250000
     16 H4          3.4940   -1.1120   -0.4740 ha        1 XXP      0.125000
     17 H3          5.1370   -0.2650   -1.9260 ha        1 XXP      0.128000
@<TRIPOS>BOND
     1    1    2 2   
     2    2    3 2   
     3    2    4 1   
     4    4    5 1   
     5    4    7 1   
     6    5    6 1   
     7    6   14 1   
     8    7    8 1   
     9    7   16 1   
    10    8    9 1   
    11    8   17 1   
    12    9   10 1   
    13    9   11 1   
    14   11   12 1   
    15   11   13 1   
    16   13   15 1   
@<TRIPOS>SUBSTRUCTURE
     1 XXP         1 TEMP              0 ****  ****    0 ROOT
