@<TRIPOS>MOLECULE
molecule
   52    54     1     0     0
SMALL
bcc


@<TRIPOS>ATOM
      1 C2           0.0000     0.0000     0.0000 c3         1 XXT      -0.136400
      2 C1           1.5500     0.0000     0.0000 c3         1 XXT       0.159100
      3 O7           0.4680     1.2620     6.1260 o          1 XXT      -0.549000
      4 C6           0.9000     0.5060     3.6580 c3         1 XXT       0.175100
      5 C5           1.9510     0.0000     1.4640 c3         1 XXT      -0.091700
      6 C3          -0.4400     0.0780     1.4870 c3         1 XXT       0.165100
      7 C4           0.7630     0.7280     2.1760 c3         1 XXT      -0.054000
      8 C19         -1.8490     0.8520     6.2390 c3         1 XXT      -0.138100
      9 O6          -0.4170     0.4590     4.2670 os         1 XXT      -0.416900
     10 C15          0.8020     2.2230     1.8570 c3         1 XXT      -0.082100
     11 O2          -1.6030     0.8980     1.6260 oh         1 XXT      -0.591800
     12 C7           1.6230    -0.8210     3.8860 c3         1 XXT      -0.104500
     13 C11          1.2000    -1.4850     5.1770 ce         1 XXT      -0.222400
     14 C14         -0.0360    -1.8120     5.5430 c2         1 XXT      -0.126000
     15 C12          2.4430    -1.6960     5.9470 c          1 XXT       0.740800
     16 O3           2.4930    -2.1050     7.0900 o          1 XXT      -0.558500
     17 O1           3.5170    -1.3680     5.1910 os         1 XXT      -0.392900
     18 C8           3.0880    -0.4130     4.1910 c3         1 XXT       0.144100
     19 C9           3.9020    -0.4370     2.9200 c3         1 XXT      -0.082400
     20 C10          3.3050     0.5160     1.8490 c3         1 XXT      -0.054700
     21 C13          4.2140     0.5460     0.6190 c3         1 XXT      -0.090100
     22 O4           2.0530    -1.1920    -0.6600 os         1 XXT      -0.428900
     23 C16          2.2930    -1.1040    -1.9780 c          1 XXT       0.629100
     24 O5           2.0890    -0.0650    -2.5600 o          1 XXT      -0.549000
     25 C17          2.8160    -2.2990    -2.7300 c3         1 XXT      -0.140100
     26 H1          -0.3700    -0.9140    -0.4480 hc         1 XXT       0.066700
     27 H2          -0.3700     0.8620    -0.5420 hc         1 XXT       0.066700
     28 H3           1.9230     0.8920    -0.4890 h1         1 XXT       0.083700
     29 H4           1.4780     1.3120     4.0930 h1         1 XXT       0.087700
     30 H5           1.9210    -1.0330     1.7890 hc         1 XXT       0.074700
     31 H6          -0.6140    -0.9140     1.8840 h1         1 XXT       0.046700
     32 H7          -1.7270     0.4540     7.2390 hc         1 XXT       0.070367
     33 H8          -2.2420     1.8600     6.2980 hc         1 XXT       0.070367
     34 H9          -2.5380     0.2280     5.6830 hc         1 XXT       0.070367
     35 H10         -0.1710     2.6590     2.0500 hc         1 XXT       0.048700
     36 H11          1.5440     2.7060     2.4810 hc         1 XXT       0.048700
     37 H12          1.0600     2.3640     0.8140 hc         1 XXT       0.048700
     38 H13         -2.3450     0.4580     1.2440 ho         1 XXT       0.403000
     39 H14          1.5520    -1.4870     3.0340 hc         1 XXT       0.103700
     40 H16         -0.2100    -2.2880     6.5010 ha         1 XXT       0.137500
     41 H17         -0.8690    -1.6080     4.8810 ha         1 XXT       0.137500
     42 H19          3.1050     0.5850     4.6130 h1         1 XXT       0.074700
     43 H20          4.9150    -0.1260     3.1440 hc         1 XXT       0.062200
     44 H21          3.9150    -1.4470     2.5270 hc         1 XXT       0.062200
     45 H22          3.2090     1.5130     2.2620 hc         1 XXT       0.061700
     46 H23          4.2630    -0.4440     0.1810 hc         1 XXT       0.043033
     47 H24          3.8160     1.2440    -0.1080 hc         1 XXT       0.043033
     48 H25          5.2090     0.8600     0.9130 hc         1 XXT       0.043033
     49 H26          2.2930    -2.3890    -3.6740 hc         1 XXT       0.070700
     50 H27          2.6560    -3.1940    -2.1410 hc         1 XXT       0.070700
     51 H28          3.8760    -2.1740    -2.9150 hc         1 XXT       0.070700
     52 C18         -0.5140     0.8730     5.5400 c          1 XXT       0.629100
@<TRIPOS>BOND
     1    25    23 1
     2    24    23 2
     3    23    22 1
     4    22     2 1
     5    21    20 1
     6     2     1 1
     7     2     5 1
     8    20     5 1
     9    20    19 1
    10     1     6 1
    11     5     7 1
    12     3    52 2
    13    19    18 1
    14     6     7 1
    15     6    11 1
    16    52     8 1
    17    52     9 1
    18     7    10 1
    19     7     4 1
    20    18    17 1
    21    18    12 1
    22    17    15 1
    23    12     4 1
    24    12    13 1
    25     9     4 1
    26    15    13 1
    27    15    16 2
    28    13    14 2
    29     1    26 1
    30     1    27 1
    31     2    28 1
    32     4    29 1
    33     5    30 1
    34     6    31 1
    35     8    32 1
    36     8    33 1
    37     8    34 1
    38    10    35 1
    39    10    36 1
    40    10    37 1
    41    11    38 1
    42    12    39 1
    43    14    40 1
    44    14    41 1
    45    18    42 1
    46    19    43 1
    47    19    44 1
    48    20    45 1
    49    21    46 1
    50    21    47 1
    51    21    48 1
    52    25    49 1
    53    25    50 1
    54    25    51 1
@<TRIPOS>SUBSTRUCTURE
     1 XXT         1 TEMP              0 ****  ****    0 ROOT
