@<TRIPOS>MOLECULE
XXX
   52    53     1     0     0
SMALL
bcc


@<TRIPOS>ATOM
      1 O3           0.0000     0.0000     0.0000 oh         1 XXX      -0.596800
      2 C4           1.4280     0.0000     0.0000 c3         1 XXX       0.175100
      3 C5           1.9390     0.0000     1.4420 c3         1 XXX       0.150100
      4 O4           1.4630    -1.1680     2.1140 oh         1 XXX      -0.544800
      5 C6           3.4690     0.0000     1.4420 c3         1 XXX      -0.084500
      6 N1           3.9590    -0.0010     2.8260 nz         1 XXX       0.095400
      7 C7           3.9780     1.2490     0.7210 c3         1 XXX      -0.034400
      8 C8           3.4680     1.2500    -0.7210 c3         1 XXX      -0.065500
      9 N2           3.9570     2.4500    -1.4140 nz         1 XXX       0.051400
     10 C9           1.9380     1.2500    -0.7210 c3         1 XXX       0.148100
     11 O5           1.4620     1.2510    -2.0690 os         1 XXX      -0.444600
     12 C10          0.2270     1.9700    -2.0690 c3         1 XXX       0.374900
     13 O6           0.4910     3.3660    -1.9470 os         1 XXX      -0.391600
     14 C11          1.4340     3.7170    -2.9590 c3         1 XXX       0.128100
     15 C12          1.8930     5.1600    -2.7480 c3         1 XXX      -0.049200
     16 N3           2.6250     5.2610    -1.4770 nz         1 XXX       0.069400
     17 C13          0.7850     3.5850    -4.3380 c3         1 XXX       0.163100
     18 O7           1.7250     3.9640    -5.3460 oh         1 XXX      -0.577800
     19 C14          0.3610     2.1280    -4.5540 c3         1 XXX       0.166100
     20 O8          -0.3770     2.0160    -5.7720 oh         1 XXX      -0.543800
     21 C15         -0.5200     1.6950    -3.3770 c3         1 XXX      -0.119500
     22 N4          -0.8140     0.2600    -3.4820 nz         1 XXX       0.099400
     23 HO3         -0.3140    -0.8780     0.1400 ho         1 XXX       0.466000
     24 H4           1.7940    -0.8830    -0.5100 h1         1 XXX       0.056700
     25 H5           1.5800     0.8870     1.9500 h1         1 XXX       0.038700
     26 HO4          0.9310    -0.9130     2.8490 ho         1 XXX       0.453000
     27 H6           3.8280    -0.8830     0.9270 hx         1 XXX       0.125700
     28 HN11         3.7410    -0.8780     3.2560 hn         1 XXX       0.248133
     29 HN12         4.9500     0.1360     2.8290 hn         1 XXX       0.248133
     30 H71          3.6140     2.1320     1.2320 hc         1 XXX       0.059200
     31 H72          5.0620     1.2470     0.7200 hc         1 XXX       0.059200
     32 H8           3.8270     0.3630    -1.2300 hx         1 XXX       0.134700
     33 HN21         3.8670     2.3250    -2.4030 hn         1 XXX       0.236467
     34 HN22         4.9200     2.5990    -1.1830 hn         1 XXX       0.236467
     35 H9           1.5790     2.1330    -0.2060 h1         1 XXX       0.047700
     36 H10         -0.3840     1.6470    -1.2340 h2         1 XXX       0.107700
     37 H11          2.2870     3.0510    -2.8990 h1         1 XXX      -0.018300
     38 H121         1.0300     5.8130    -2.7200 hx         1 XXX       0.134700
     39 H122         2.5430     5.4550    -3.5630 hx         1 XXX       0.134700
     40 HN31         3.5780     4.9910    -1.6190 hn         1 XXX       0.227133
     41 HN32         2.5910     6.2050    -1.1470 hn         1 XXX       0.227133
     42 H13         -0.0870     4.2260    -4.3890 h1         1 XXX       0.075700
     43 HO7          1.2940     4.4950    -5.9950 ho         1 XXX       0.467000
     44 H14          1.2410     1.4980    -4.5980 h1         1 XXX       0.027700
     45 HO8          0.1620     1.6090    -6.4300 ho         1 XXX       0.453000
     46 H15         -1.4430     2.2610    -3.3910 hx         1 XXX       0.148700
     47 HN41        -1.5260     0.1150    -4.1700 hn         1 XXX       0.241467
     48 HN42         0.0150    -0.2320    -3.7520 hn         1 XXX       0.241467
     49 H131         3.4910     0.7160     3.3460 hn         1 XXX       0.248133
     50 H23          3.4020     3.2390    -1.1470 hn         1 XXX       0.236467
     51 H33          2.1910     4.6710    -0.7950 hn         1 XXX       0.227133
     52 H43         -1.1570    -0.0750    -2.6040 hn         1 XXX       0.241467
@<TRIPOS>BOND
     1     1     2 1   
     2     1    23 1   
     3     2     3 1   
     4     2    10 1   
     5     2    24 1   
     6     3     4 1   
     7     3     5 1   
     8     3    25 1   
     9     4    26 1   
    10     5     6 1   
    11     5     7 1   
    12     5    27 1   
    13     6    28 1   
    14     6    29 1   
    15     6    49 1   
    16     7     8 1   
    17     7    30 1   
    18     7    31 1   
    19     8     9 1   
    20     8    10 1   
    21     8    32 1   
    22     9    33 1   
    23     9    34 1   
    24     9    50 1   
    25    10    11 1   
    26    10    35 1   
    27    11    12 1   
    28    12    13 1   
    29    12    21 1   
    30    12    36 1   
    31    13    14 1   
    32    14    15 1   
    33    14    17 1   
    34    14    37 1   
    35    15    16 1   
    36    15    38 1   
    37    15    39 1   
    38    16    40 1   
    39    16    41 1   
    40    16    51 1   
    41    17    18 1   
    42    17    19 1   
    43    17    42 1   
    44    18    43 1   
    45    19    20 1   
    46    19    21 1   
    47    19    44 1   
    48    20    45 1   
    49    21    22 1   
    50    21    46 1   
    51    22    47 1   
    52    22    48 1   
    53    22    52 1   
@<TRIPOS>SUBSTRUCTURE
     1 XXX         1 TEMP              0 ****  ****    0 ROOT
