@<TRIPOS>MOLECULE
XXZ
   51    54     1     0     0
SMALL
bcc


@<TRIPOS>ATOM
      1 F1           0.0000     0.0000     0.0000 f          1 XXZ      -0.127900
      2 C2           1.3510     0.0000     0.0000 ca         1 XXZ       0.125900
      3 C3           2.0490     0.0000     1.1950 ca         1 XXZ      -0.107000
      4 C4           3.4330     0.0010     1.2000 ca         1 XXZ       0.008000
      5 C1           4.1400    -0.0000     0.0110 ca         1 XXZ      -0.090000
      6 C6           3.4590    -0.0030    -1.1910 ca         1 XXZ       0.080600
      7 C7           2.0530    -0.0000    -1.2030 ca         1 XXZ      -0.303900
      8 CG           1.3650     0.0100    -2.5090 ce         1 XXZ       0.249800
      9 N20          2.0300    -0.2770    -3.5920 n2         1 XXZ      -0.424900
     10 N21          0.0250     0.3230    -2.5820 nz         1 XXZ       0.177400
     11 N1           4.1150    -0.0070    -2.4200 nu         1 XXZ      -0.431600
     12 C5           3.4440    -0.6470    -3.5600 c3         1 XXZ       0.273400
     13 C10          4.1200    -0.1910    -4.8570 c3         1 XXZ      -0.036900
     14 C11          5.6090    -0.5470    -4.8040 c3         1 XXZ       0.049500
     15 N12          5.7430    -1.9840    -4.5280 n          1 XXZ      -0.155800
     16 C13          5.0500    -2.5460    -3.3610 c3         1 XXZ       0.049500
     17 C14          3.5730    -2.1670    -3.4280 c3         1 XXZ      -0.036900
     18 C15          6.4820    -2.7710    -5.3340 c          1 XXZ       0.597700
     19 O16          6.9500    -2.3210    -6.3620 o          1 XXZ      -0.587100
     20 C18          7.0920    -4.5160    -3.6640 ca         1 XXZ      -0.051500
     21 NH           6.1690    -8.8750    -3.4480 nz         1 XXZ       0.076400
     22 C8           7.1760    -6.8280    -4.2830 ca         1 XXZ      -0.196300
     23 CD1          6.8180    -6.5040    -5.5790 ca         1 XXZ      -0.069000
     24 CE1          6.5860    -5.1890    -5.9260 ca         1 XXZ      -0.051500
     25 CD2          7.3160    -5.8350    -3.3290 ca         1 XXZ      -0.069000
     26 CZ           6.7240    -4.1830    -4.9690 ca         1 XXZ      -0.094600
     27 H3           1.5080     0.0010     2.1330 ha         1 XXZ       0.148000
     28 H4           3.9670     0.0010     2.1420 ha         1 XXZ       0.134000
     29 H1           5.2240     0.0010     0.0220 ha         1 XXZ       0.139000
     30 H211        -0.1450     1.1750    -2.0850 hn         1 XXZ       0.229800
     31 H212        -0.2380     0.4380    -3.5410 hn         1 XXZ       0.229800
     32 HN1          4.3710     0.9290    -2.6650 hn         1 XXZ       0.296800
     33 H101         4.0090     0.8810    -4.9640 hc         1 XXZ       0.040950
     34 H102         3.6600    -0.6930    -5.6990 hc         1 XXZ       0.040950
     35 H111         6.0710    -0.3160    -5.7570 h1         1 XXZ       0.046450
     36 H112         6.0890     0.0200    -4.0150 h1         1 XXZ       0.046450
     37 H131         5.1470    -3.6250    -3.3690 h1         1 XXZ       0.046450
     38 H132         5.4850    -2.1440    -2.4550 h1         1 XXZ       0.046450
     39 H141         3.1170    -2.6430    -4.2890 hc         1 XXZ       0.040950
     40 H142         3.0760    -2.4940    -2.5230 hc         1 XXZ       0.040950
     41 H18          7.2020    -3.7400    -2.9160 ha         1 XXZ       0.136500
     42 HNH1         6.3160    -9.8490    -3.2690 hn         1 XXZ       0.224133
     43 HNH2         5.4900    -8.7690    -4.1760 hn         1 XXZ       0.224133
     44 HB1          8.1610    -8.3130    -3.1180 hx         1 XXZ       0.088200
     45 HB2          7.7900    -8.8060    -4.7760 hx         1 XXZ       0.088200
     46 HD1          6.7100    -7.2860    -6.3220 ha         1 XXZ       0.115500
     47 HE1          6.3050    -4.9370    -6.9410 ha         1 XXZ       0.136500
     48 HD2          7.6010    -6.0950    -2.3170 ha         1 XXZ       0.115500
     49 H213        -0.5120    -0.4020    -2.1490 hn         1 XXZ       0.229800
     50 HH3          5.8710    -8.4220    -2.6070 hn         1 XXZ       0.224133
     51 CB           7.4240    -8.2670    -3.9100 c3         1 XXZ       0.033100
@<TRIPOS>BOND
     1     1     2 1   
     2     2     3 ar  
     3     2     7 ar  
     4     3     4 ar  
     5     3    27 1   
     6     4     5 ar  
     7     4    28 1   
     8     5     6 ar  
     9     5    29 1   
    10     6     7 ar  
    11     6    11 1   
    12     7     8 1   
    13     8     9 2   
    14     8    10 1   
    15     9    12 1   
    16    10    30 1   
    17    10    31 1   
    18    10    49 1   
    19    11    12 1   
    20    11    32 1   
    21    12    13 1   
    22    12    17 1   
    23    13    14 1   
    24    13    33 1   
    25    13    34 1   
    26    14    15 1   
    27    14    35 1   
    28    14    36 1   
    29    15    16 1   
    30    15    18 1   
    31    16    17 1   
    32    16    37 1   
    33    16    38 1   
    34    17    39 1   
    35    17    40 1   
    36    18    19 2   
    37    18    26 1   
    38    20    25 ar  
    39    20    26 ar  
    40    20    41 1   
    41    21    42 1   
    42    21    43 1   
    43    21    50 1   
    44    21    51 1   
    45    22    23 ar  
    46    22    25 ar  
    47    22    51 1   
    48    23    24 ar  
    49    23    46 1   
    50    24    26 ar  
    51    24    47 1   
    52    25    48 1   
    53    44    51 1   
    54    45    51 1   
@<TRIPOS>SUBSTRUCTURE
     1 XXZ         1 TEMP              0 ****  ****    0 ROOT
