@<TRIPOS>MOLECULE
molecule
   36    37     1     0     0
SMALL
bcc


@<TRIPOS>ATOM
      1 C29          0.0000     0.0000     0.0000 c          1 XY1       0.867200
      2 O30          1.3470     0.0000     0.0000 o          1 XY1      -0.809800
      3 C26         -0.7390     0.0000     1.2790 ca         1 XY1      -0.019600
      4 C25         -2.1370    -0.0060     1.2780 ca         1 XY1      -0.130000
      5 C24         -2.8220    -0.0060     2.4660 ca         1 XY1      -0.086000
      6 C27         -0.0400    -0.0000     2.4890 ca         1 XY1      -0.130000
      7 C28         -0.7240    -0.0010     3.6770 ca         1 XY1      -0.086000
      8 C23         -2.1230    -0.0010     3.6770 ca         1 XY1       0.021400
      9 N21         -2.8070    -0.0010     4.8600 ne         1 XY1      -0.180400
     10 N20         -2.1620     0.0040     5.9780 nf         1 XY1      -0.289400
     11 C18         -2.8430     0.0050     7.1580 ca         1 XY1       0.158400
     12 C17         -2.1460     0.0090     8.3760 ca         1 XY1       0.157100
     13 O22         -0.7890     0.0150     8.3860 oh         1 XY1      -0.487100
     14 C16         -2.8490     0.0110     9.5700 ca         1 XY1      -0.164000
     15 C15         -4.2310     0.0070     9.5600 ca         1 XY1      -0.126000
     16 C19         -4.2420     0.0060     7.1630 ca         1 XY1      -0.133000
     17 C9          -4.9240     0.0010     8.3600 ca         1 XY1      -0.145300
     18 C14         -6.4310    -0.0050     8.3640 c3         1 XY1      -0.043100
     19 C12         -6.9470     1.4360     8.3620 c3         1 XY1       0.087800
     20 N3          -8.4150     1.4310     8.3660 nz         1 XY1      -0.811600
     21 OXT         -0.6080    -0.0050    -1.0510 o          1 XY1      -0.809800
     22 H25         -2.6780    -0.0110     0.3400 ha         1 XY1       0.167000
     23 H27          1.0440    -0.0000     2.4890 ha         1 XY1       0.167000
     24 H24         -3.9060    -0.0090     2.4660 ha         1 XY1       0.131000
     25 H28         -0.1820     0.0010     4.6150 ha         1 XY1       0.131000
     26 H19         -4.7860    -0.0700     6.2290 ha         1 XY1       0.155000
     27 H22         -0.4740    -0.8090     8.7200 ho         1 XY1       0.428000
     28 H16         -2.3150     0.0190    10.5120 ha         1 XY1       0.148000
     29 H15         -4.7770     0.0050    10.4960 ha         1 XY1       0.118000
     30 H141        -6.7880    -0.5150     9.2510 hc         1 XY1       0.061700
     31 H142        -6.7930    -0.5190     7.4820 hc         1 XY1       0.061700
     32 H121        -6.5850     1.9500     9.2450 hx         1 XY1       0.117200
     33 H122        -6.5900     1.9450     7.4760 hx         1 XY1       0.117200
     34 H31N        -8.7510     2.3730     8.3660 hn         1 XY1       0.452133
     35 H32N        -8.7490     0.9570     7.5510 hn         1 XY1       0.452133
     36 H33         -8.7440     0.9590     9.1850 hn         1 XY1       0.452133
@<TRIPOS>BOND
     1     1     2 1
     2     1     3 1
     3     1    21 1
     4     3     4 ar
     5     3     6 ar
     6     4     5 ar
     7     5     8 ar
     8     6     7 ar
     9     7     8 ar
    10     8     9 1
    11     9    10 2
    12    10    11 1
    13    11    12 ar
    14    11    16 ar
    15    12    13 1
    16    12    14 ar
    17    14    15 ar
    18    15    17 ar
    19    16    17 ar
    20    17    18 1
    21    18    19 1
    22    19    20 1
    23     4    22 1
    24     6    23 1
    25     5    24 1
    26     7    25 1
    27    16    26 1
    28    13    27 1
    29    14    28 1
    30    15    29 1
    31    18    30 1
    32    18    31 1
    33    19    32 1
    34    19    33 1
    35    20    34 1
    36    20    35 1
    37    36    20 1
@<TRIPOS>SUBSTRUCTURE
     1 XY1         1 TEMP              0 ****  ****    0 ROOT
