@<TRIPOS>MOLECULE
XY2
   37    37     1     0     0
SMALL
bcc


@<TRIPOS>ATOM
      1 C1          0.5770    0.1500   -0.0810 ca        1 XY2     -0.160000
      2 C2          1.2480    1.1740    0.6560 ca        1 XY2     -0.048000
      3 C3          1.2540    1.1080    2.1470 ca        1 XY2     -0.119000
      4 C19         3.9260    3.8350    4.2860 c3        1 XY2     -0.248000
      5 C17         2.6700    3.5400    5.0300 c2        1 XY2      0.285000
      6 O18         1.5880    4.0940    4.9470 o         1 XY2     -0.165000
      7 N15         2.7750    2.4080    6.0630 n4        1 XY2     -0.078000
      8 C16         2.0000    2.7280    7.2850 c3        1 XY2     -0.196000
      9 C14         2.3730    1.0910    5.4790 c3        1 XY2     -0.154000
     10 C13         0.8670    0.9970    5.0990 c3        1 XY2     -0.022000
     11 C12        -0.7820   -2.3130    5.2300 c1        1 XY2     -0.048000
     12 N5          1.9600    2.2800    0.3300 n2        1 XY2      0.070000
     13 O6          2.3610    2.8270    1.4720 os        1 XY2      0.003000
     14 N7          1.9750    2.1750    2.5580 n2        1 XY2     -0.089000
     15 N8          0.5400    0.1800   -1.5620 no        1 XY2      0.585000
     16 O10        -0.0370   -0.7130   -2.1240 o         1 XY2     -0.334500
     17 O9          1.0780    1.0750   -2.1480 o         1 XY2     -0.334500
     18 C21        -0.0320   -0.8670    0.6240 ca        1 XY2      0.035000
     19 C20        -0.0280   -0.9270    2.0390 ca        1 XY2     -0.240000
     20 C4          0.5870    0.0270    2.8470 ca        1 XY2      0.175000
     21 H191        3.6520    4.3710    3.3350 hc        1 XY2      0.154000
     22 H192        4.5780    4.5060    4.9030 hc        1 XY2      0.154000
     23 H193        4.4890    2.9080    4.0150 hc        1 XY2      0.154000
     24 H161        2.4260    3.6510    7.7620 hx        1 XY2      0.145667
     25 H162        0.9270    2.9180    7.0080 hx        1 XY2      0.145667
     26 H163        2.0580    1.8680    8.0040 hx        1 XY2      0.145667
     27 H141        2.6040    0.2970    6.2470 hx        1 XY2      0.143000
     28 H142        3.0270    0.9100    4.5790 hx        1 XY2      0.143000
     29 H131        0.5190    1.9810    4.6690 h1        1 XY2      0.112000
     30 H132        0.2900    0.8230    6.0550 h1        1 XY2      0.112000
     31 H121        0.0970   -0.9170    4.6240 hn        1 XY2      0.311000
     32 H122       -0.9180   -2.5750    6.2860 ha        1 XY2      0.065000
     33 H123       -1.2450   -3.0220    4.5320 ha        1 XY2      0.065000
     34 H21        -0.5500   -1.7810    2.5040 ha        1 XY2      0.159000
     35 H20        -0.5570   -1.6760    0.0760 ha        1 XY2      0.189000
     36 N11         0.5960   -0.0900    4.2190 nh        1 XY2     -0.358000
     37 H151        3.7670    2.3280    6.3220 hn        1 XY2      0.244000
@<TRIPOS>BOND
     1    1    2 1
     2    1   15 1
     3    1   18 1
     4    2    3 1
     5    2   12 1
     6    3   14 1
     7    3   20 1
     8    4    5 1
     9    4   21 1
    10    4   22 1
    11    4   23 1
    12    5    6 1
    13    5    7 1
    14    7    8 1
    15    7    9 1
    16    7   37 1
    17    8   24 1
    18    8   25 1
    19    8   26 1
    20    9   10 1
    21    9   27 1
    22    9   28 1
    23   10   29 1
    24   10   30 1
    25   10   36 1
    26   11   32 1
    27   11   33 1
    28   12   13 1
    29   13   14 1
    30   15   16 1
    31   15   17 1
    32   18   19 1
    33   18   35 1
    34   19   20 1
    35   19   34 1
    36   20   36 1
    37   31   36 1
@<TRIPOS>SUBSTRUCTURE
     1 XY2         1 TEMP              0 ****  ****    0 ROOT
