@<TRIPOS>MOLECULE
molecule
   73    76     1     0     0
SMALL
bcc


@<TRIPOS>ATOM
      1 N1           0.0000     0.0000     0.0000 nc         1 XY3      -0.650000
      2 N3          -7.9050    -2.9650    12.4440 n3         1 XY3      -0.696600
      3 C4           0.5970     0.0180     4.7020 cg         1 XY3       0.058000
      4 C5           0.6830     0.0050     6.0630 ca         1 XY3      -0.020000
      5 C6           1.6820     0.3000     6.7060 ca         1 XY3       0.019700
      6 C7           1.6060     0.2340     8.1950 ca         1 XY3      -0.160000
      7 C8           0.2890    -0.1970     8.7760 ca         1 XY3      -0.164000
      8 C10         -0.4810    -0.3850     6.8980 ca         1 XY3      -0.079000
      9 C13         -3.3010    -1.9010    10.6770 ca         1 XY3       0.111600
     10 C15         -5.0220    -3.4290    10.5520 ca         1 XY3      -0.063000
     11 C17         -5.0290    -2.1450    12.3770 ca         1 XY3       0.004700
     12 C21         -8.3960    -2.8820    10.6450 c3         1 XY3       0.127800
     13 C22         -9.5840    -1.7890    10.6160 c3         1 XY3       0.098300
     14 C24         -9.1330    -3.2040    13.3290 c3         1 XY3       0.127800
     15 C26          3.1570    -0.0010     1.7390 c3         1 XY3      -0.002400
     16 C81          2.1730     0.0010    -1.1980 c          1 XY3       0.510600
     17 O2           3.3840     0.0000    -1.0800 o          1 XY3      -0.468100
     18 N82          1.7610     0.0000     1.2950 na         1 XY3      -0.102900
     19 C84          1.3180     0.0000     0.0000 cd         1 XY3       0.266000
     20 C1          -0.4470    -0.0000     1.2480 cc         1 XY3       0.358200
     21 C2           0.6490    -0.0000     2.0960 cd         1 XY3       0.011400
     22 C3           0.6230    -0.0010     3.5280 ch         1 XY3      -0.180000
     23 C9          -0.6540    -0.4670     7.8580 ca         1 XY3      -0.053600
     24 C11          2.9760     0.2550     6.1440 c3         1 XY3      -0.083800
     25 C12         -2.0150    -1.0980     8.7690 c          1 XY3       0.645700
     26 O1          -2.8110    -0.8520     8.0190 o          1 XY3      -0.526100
     27 N2          -2.2060    -1.4170    10.0650 ns         1 XY3      -0.470100
     28 C14         -3.9020    -2.8290    10.0750 ca         1 XY3      -0.173000
     29 C16         -5.3630    -2.9170    11.6810 ca         1 XY3      -0.149300
     30 C18         -3.8630    -1.5440    11.8480 ca         1 XY3      -0.221000
     31 C19         -4.8570    -2.0990    13.9850 c3         1 XY3       0.688200
     32 F1          -5.1630    -3.3130    14.5190 f          1 XY3      -0.214967
     33 F2          -3.9780    -1.5350    14.4310 f          1 XY3      -0.214967
     34 F3          -6.1380    -1.0780    13.9820 f          1 XY3      -0.214967
     35 C23        -10.1840    -2.1670    12.9840 c3         1 XY3       0.098300
     36 N4         -10.6640    -2.2100    11.5690 n3         1 XY3      -0.543600
     37 N5           1.6160     0.0010    -2.4250 nz         1 XY3      -0.687400
     38 C27        -12.0720    -1.2210     9.9490 c3         1 XY3       0.110400
     39 O3         -13.2040    -2.0980    10.0400 oh         1 XY3      -0.592800
     40 H7           2.3510     0.1290     8.9740 ha         1 XY3       0.161000
     41 H8           0.1930     0.0240     9.8320 ha         1 XY3       0.146000
     42 H10         -1.3830    -0.5560     6.3230 ha         1 XY3       0.141000
     43 H15         -5.3580    -4.2560     9.9380 ha         1 XY3       0.152000
     44 H20         -6.6880    -4.0240    13.3670 h1         1 XY3       0.059200
     45 H20A        -6.6120    -4.8580    11.7950 h1         1 XY3       0.059200
     46 H21         -7.4550    -2.9450    10.1110 h1         1 XY3       0.058950
     47 H21A        -8.9970    -3.7800    10.5600 h1         1 XY3       0.058950
     48 H22         -8.9990    -0.8770    10.6190 h1         1 XY3       0.056200
     49 H22A        -9.7310    -2.0840     9.5840 h1         1 XY3       0.056200
     50 H24         -9.5650    -4.1480    13.0180 h1         1 XY3       0.058950
     51 H24A        -8.9150    -3.1100    14.3860 h1         1 XY3       0.058950
     52 H26          3.4640     1.0310     1.6270 h1         1 XY3       0.083367
     53 H26A         3.4150    -0.2160     2.7690 h1         1 XY3       0.083367
     54 H26B         3.8010    -0.3710     0.9500 h1         1 XY3       0.083367
     55 H1          -1.4600    -0.2080     1.5710 h4         1 XY3       0.083100
     56 H11          3.2300     1.2990     6.0040 hc         1 XY3       0.054367
     57 H11A         3.8410    -0.1260     6.6740 hc         1 XY3       0.054367
     58 H11B         2.9300    -0.3270     5.2320 hc         1 XY3       0.054367
     59 HN2         -1.4140    -0.9740    10.4870 hn         1 XY3       0.310500
     60 H14         -3.3360    -3.1220     9.1990 ha         1 XY3       0.124000
     61 H18         -3.3190    -1.0510    12.6440 ha         1 XY3       0.122000
     62 H23        -11.0910    -2.2630    13.5680 h1         1 XY3       0.056200
     63 H23A        -9.7990    -1.2340    13.3780 h1         1 XY3       0.056200
     64 H25        -12.0830    -0.7330    12.3240 h1         1 XY3       0.059200
     65 H25A       -11.0280     0.0770    11.2950 h1         1 XY3       0.059200
     66 HN5          0.7920     0.3970    -2.8330 hn         1 XY3       0.471467
     67 HN5A         2.2160     0.3500    -3.1460 hn         1 XY3       0.471467
     68 H27        -12.6150    -0.2860    10.0230 h1         1 XY3       0.012700
     69 H27A       -11.7440    -1.2000     8.9170 h1         1 XY3       0.012700
     70 HO3        -13.5920    -2.0640     9.1810 ho         1 XY3       0.388000
     71 C20         -6.8820    -3.9410    12.3040 c3         1 XY3       0.173100
     72 C25        -11.4490    -0.9070    11.4630 c3         1 XY3       0.148800
     73 H53          1.8800    -0.8030    -2.9590 hn         1 XY3       0.471467
@<TRIPOS>BOND
     1    19     1 2
     2     1    20 1
     3    12     2 1
     4     2    14 1
     5     2    71 1
     6     4     3 1
     7     3    22 3
     8     5     4 ar
     9     4     8 ar
    10    24     5 1
    11     6     5 ar
    12     6     7 ar
    13     6    40 1
    14     7    23 ar
    15     7    41 1
    16    23     8 ar
    17     8    42 1
    18    27     9 1
    19    28     9 ar
    20     9    30 ar
    21    28    10 ar
    22    10    29 ar
    23    10    43 1
    24    30    11 ar
    25    29    11 ar
    26    11    31 1
    27    29    71 1
    28    71    44 1
    29    71    45 1
    30    13    12 1
    31    12    46 1
    32    12    47 1
    33    13    36 1
    34    13    48 1
    35    13    49 1
    36    35    14 1
    37    14    50 1
    38    14    51 1
    39    15    18 1
    40    15    52 1
    41    15    53 1
    42    15    54 1
    43    17    16 2
    44    16    19 1
    45    16    37 1
    46    18    19 1
    47    18    21 1
    48    21    20 2
    49    20    55 1
    50    22    21 1
    51    23    25 1
    52    24    56 1
    53    24    57 1
    54    24    58 1
    55    27    25 1
    56    25    26 2
    57    27    59 1
    58    28    60 1
    59    30    61 1
    60    32    31 1
    61    31    33 1
    62    31    34 1
    63    36    35 1
    64    35    62 1
    65    35    63 1
    66    72    38 1
    67    72    36 1
    68    72    64 1
    69    72    65 1
    70    37    66 1
    71    37    67 1
    72    38    39 1
    73    38    68 1
    74    38    69 1
    75    39    70 1
    76    73    37 1
@<TRIPOS>SUBSTRUCTURE
     1 XY3         1 TEMP              0 ****  ****    0 ROOT
