@<TRIPOS>MOLECULE
XY3
   73    76     1     0     0
SMALL
bcc


@<TRIPOS>ATOM
      1 N1          0.9880    0.9400   -0.2290 nc        1 XY3     -0.616000
      2 N3         -8.4380    6.1550    9.9090 n3        1 XY3     -0.731600
      3 C4          0.1590    0.2440    4.4630 cg        1 XY3      0.076000
      4 C5         -0.3370    0.1860    5.7760 ca        1 XY3     -0.050000
      5 C6          0.3770   -0.4670    6.8020 ca        1 XY3     -0.003300
      6 C7         -0.1750   -0.5120    8.0880 ca        1 XY3     -0.144000
      7 C8         -1.4030    0.0840    8.3640 ca        1 XY3     -0.060000
      8 C10        -1.5770    0.7860    6.0550 ca        1 XY3     -0.028000
      9 C13        -4.7570    2.7380    9.1940 ca        1 XY3      0.052600
     10 C15        -7.1130    3.2890    9.0670 ca        1 XY3     -0.110000
     11 C17        -5.7510    4.3260   10.7550 ca        1 XY3     -0.121300
     12 C21        -9.1200    5.9770    8.6360 c3        1 XY3      0.169800
     13 C22        -9.3550    7.3050    7.8910 c3        1 XY3      0.168800
     14 C24        -9.0660    7.1720   10.7400 c3        1 XY3      0.169800
     15 C26         3.1340   -0.8910    2.1570 c3        1 XY3     -0.007400
     16 C81         3.1460   -0.1930   -0.8270 c         1 XY3      0.497600
     17 O2          4.1660   -0.8500   -0.6470 o         1 XY3     -0.457100
     18 N82         2.1190   -0.1470    1.4720 na        1 XY3     -0.090900
     19 C84         2.1180    0.1960    0.0960 cd        1 XY3      0.199000
     20 C1          0.2820    1.0710    0.9150 cc        1 XY3      0.351200
     21 C2          0.9680    0.3980    2.0080 cd        1 XY3      0.045400
     22 C3          0.5580    0.3030    3.3300 ch        1 XY3     -0.210000
     23 C9         -2.1020    0.7440    7.3480 ca        1 XY3     -0.155600
     24 C11         1.6940   -1.0990    6.5580 c3        1 XY3     -0.068800
     25 C12        -3.4400    1.3780    7.5720 c         1 XY3      0.678700
     26 O1         -4.3220    1.3050    6.6970 o         1 XY3     -0.579100
     27 N2         -3.6100    2.0370    8.7780 n         1 XY3     -0.462100
     28 C14        -6.0210    2.5770    8.5890 ca        1 XY3     -0.120000
     29 C16        -7.0020    4.1720   10.1480 ca        1 XY3     -0.036300
     30 C18        -4.6400    3.6230   10.2890 ca        1 XY3     -0.140000
     31 C19        -5.5540    5.2440   11.9630 c3        1 XY3      0.688200
     32 F1         -6.1980    4.8160   13.1010 f         1 XY3     -0.234300
     33 F2         -4.2470    5.3870   12.3670 f         1 XY3     -0.234300
     34 F3         -5.9830    6.5360   11.7970 f         1 XY3     -0.234300
     35 C23        -9.3120    8.4950    9.9890 c3        1 XY3      0.168800
     36 N4        -10.0050    8.3080    8.7210 n3        1 XY3     -0.740600
     37 N5          2.9240    0.2890   -2.2460 n4        1 XY3     -0.737400
     38 C27       -11.4250    9.5240    7.0660 c3        1 XY3      0.135400
     39 O3        -12.6550    9.4690    7.7560 oh        1 XY3     -0.598800
     40 H7          0.3710   -1.0330    8.8910 ha        1 XY3      0.156000
     41 H8         -1.8200    0.0130    9.3820 ha        1 XY3      0.155000
     42 H10        -2.1520    1.2820    5.2540 ha        1 XY3      0.167000
     43 H15        -8.0950    3.1520    8.5840 ha        1 XY3      0.147000
     44 H20        -8.1200    5.1190   11.7230 h1        1 XY3      0.053200
     45 H20A       -9.1170    4.2050   10.5100 h1        1 XY3      0.053200
     46 H21        -8.4670    5.3280    7.9870 h1        1 XY3      0.040200
     47 H21A      -10.1130    5.4530    8.7630 h1        1 XY3      0.040200
     48 H22        -8.3660    7.6730    7.4890 h1        1 XY3      0.040700
     49 H22A      -10.0260    7.0900    7.0140 h1        1 XY3      0.040700
     50 H24       -10.0460    6.8130   11.1700 h1        1 XY3      0.040200
     51 H24A       -8.3640    7.3920   11.5950 h1        1 XY3      0.040200
     52 H26         4.0360   -0.2390    2.3190 h1        1 XY3      0.089700
     53 H26A        2.7360   -1.2340    3.1510 h1        1 XY3      0.089700
     54 H26B        3.4330   -1.7810    1.5380 h1        1 XY3      0.089700
     55 H1         -0.6670    1.6110    0.9840 h4        1 XY3      0.085100
     56 H11         2.5080   -0.4500    6.9720 hc        1 XY3      0.057033
     57 H11A        1.7500   -2.0950    7.0660 hc        1 XY3      0.057033
     58 H11B        1.8840   -1.2490    5.4670 hc        1 XY3      0.057033
     59 HN2        -2.8130    2.1250    9.3700 hn        1 XY3      0.322500
     60 H14        -6.1530    1.8930    7.7330 ha        1 XY3      0.175000
     61 H18        -3.6680    3.7700   10.7890 ha        1 XY3      0.150000
     62 H23        -9.9590    9.1420   10.6460 h1        1 XY3      0.040700
     63 H23A       -8.3220    9.0190    9.8480 h1        1 XY3      0.040700
     64 H25       -10.4250   10.3700    8.7820 h1        1 XY3      0.045200
     65 H25A       -9.3160    9.8760    7.4230 h1        1 XY3      0.045200
     66 HN5         2.8720    1.3130   -2.2570 hn        1 XY3      0.473467
     67 HN5A        3.6970   -0.0250   -2.8440 hn        1 XY3      0.473467
     68 H27       -11.4660   10.4890    6.4910 h1        1 XY3      0.043700
     69 H27A      -11.3480    8.6660    6.3460 h1        1 XY3      0.043700
     70 HO3       -12.6350    8.6900    8.3250 ho        1 XY3      0.412000
     71 C20        -8.2320    4.9010   10.6210 c3        1 XY3      0.207100
     72 C25       -10.2230    9.5650    8.0190 c3        1 XY3      0.125800
     73 H53         2.0370   -0.0840   -2.6020 hn        1 XY3      0.473467
@<TRIPOS>BOND
     1    1   19 2   
     2    1   20 1   
     3    2   12 1   
     4    2   14 1   
     5    2   71 1   
     6    3    4 1   
     7    3   22 3   
     8    4    5 ar  
     9    4    8 ar  
    10    5    6 ar  
    11    5   24 1   
    12    6    7 ar  
    13    6   40 1   
    14    7   23 ar  
    15    7   41 1   
    16    8   23 ar  
    17    8   42 1   
    18    9   27 1   
    19    9   28 ar  
    20    9   30 ar  
    21   10   28 ar  
    22   10   29 ar  
    23   10   43 1   
    24   11   29 ar  
    25   11   30 ar  
    26   11   31 1   
    27   12   13 1   
    28   12   46 1   
    29   12   47 1   
    30   13   36 1   
    31   13   48 1   
    32   13   49 1   
    33   14   35 1   
    34   14   50 1   
    35   14   51 1   
    36   15   18 1   
    37   15   52 1   
    38   15   53 1   
    39   15   54 1   
    40   16   17 2   
    41   16   19 1   
    42   16   37 1   
    43   18   19 1   
    44   18   21 1   
    45   20   21 2   
    46   20   55 1   
    47   21   22 1   
    48   23   25 1   
    49   24   56 1   
    50   24   57 1   
    51   24   58 1   
    52   25   26 2   
    53   25   27 1   
    54   27   59 1   
    55   28   60 1   
    56   29   71 1   
    57   30   61 1   
    58   31   32 1   
    59   31   33 1   
    60   31   34 1   
    61   35   36 1   
    62   35   62 1   
    63   35   63 1   
    64   36   72 1   
    65   37   66 1   
    66   37   67 1   
    67   37   73 1   
    68   38   39 1   
    69   38   68 1   
    70   38   69 1   
    71   38   72 1   
    72   39   70 1   
    73   44   71 1   
    74   45   71 1   
    75   64   72 1   
    76   65   72 1   
@<TRIPOS>SUBSTRUCTURE
     1 XY3         1 TEMP              0 ****  ****    0 ROOT
