@<TRIPOS>MOLECULE
XY5
   37    39     1     0     0
SMALL
bcc


@<TRIPOS>ATOM
      1 CA           0.0000     0.0000     0.0000 c3         1 XY5       0.036800
      2 C            1.5070     0.0000     0.0000 c          1 XY5       0.640900
      3 O            2.1100     0.0000     1.0470 o          1 XY5      -0.533100
      4 CB1         -3.6950     2.6060    -1.8260 ca         1 XY5       0.083400
      5 NB1         -4.2190     3.6230    -2.5600 ne         1 XY5      -0.110400
      6 CB2         -2.3230     2.4110    -1.6920 ca         1 XY5      -0.154000
      7 NB2         -0.4880     1.1310    -0.7930 nu         1 XY5      -0.422600
      8 CB3         -1.8620     1.3390    -0.9410 ca         1 XY5       0.067600
      9 CA1         -5.8990     4.9120    -1.3200 ca         1 XY5       0.129400
     10 CA2         -6.5950     4.2330    -0.3300 ca         1 XY5      -0.153300
     11 CA3         -7.4130     4.9340     0.5510 ca         1 XY5      -0.055000
     12 CA4         -7.5460     6.3010     0.4810 ca         1 XY5      -0.168000
     13 CA5         -6.8460     7.0030    -0.4950 ca         1 XY5       0.051600
     14 CA6         -6.0390     6.3220    -1.3770 ca         1 XY5      -0.169000
     15 CA7         -6.5390     2.7420    -0.0960 c3         1 XY5       0.034900
     16 CB4         -2.7650     0.4730    -0.3330 ca         1 XY5      -0.192000
     17 CB5         -4.1280     0.6730    -0.4670 ca         1 XY5      -0.033000
     18 CB6         -4.5920     1.7400    -1.2060 ca         1 XY5      -0.171300
     19 CB7         -6.0740     2.0000    -1.3470 c3         1 XY5       0.007900
     20 NA1         -5.1070     4.4070    -2.2580 nf         1 XY5      -0.100400
     21 NA2         -6.9630     8.3920    -0.5790 nv         1 XY5      -0.447200
     22 HA2         -0.3610    -0.9260    -0.4310 h1         1 XY5       0.036200
     23 HA3         -0.3610     0.0900     1.0170 h1         1 XY5       0.036200
     24 H1           2.0480    -0.0540    -0.9370 h4         1 XY5      -0.034800
     25 HB22         0.1630     1.7610    -1.2190 hn         1 XY5       0.292800
     26 HA31        -7.9580     4.3890     1.3120 ha         1 XY5       0.102000
     27 HA41        -8.1840     6.8260     1.1810 ha         1 XY5       0.109000
     28 HA61        -5.4980     6.8760    -2.1350 ha         1 XY5       0.120000
     29 HA72        -7.5340     2.3970     0.1570 hc         1 XY5       0.027200
     30 HA71        -5.8310     2.5470     0.7010 hc         1 XY5       0.027200
     31 HB41        -2.3990    -0.3620     0.2520 ha         1 XY5       0.114000
     32 HB51        -4.8260    -0.0050     0.0080 ha         1 XY5       0.104000
     33 HB72        -6.2430     2.6270    -2.2140 hc         1 XY5       0.033200
     34 HB71        -6.5950     1.0530    -1.4120 hc         1 XY5       0.033200
     35 HA21        -7.5510     8.8850     0.0640 hn         1 XY5       0.266800
     36 H2          -6.4590     8.8950    -1.2830 hn         1 XY5       0.266800
     37 HB21        -1.6330     2.9820    -2.3020 ha         1 XY5       0.121000
@<TRIPOS>BOND
     1     1     2 1   
     2     1     7 1   
     3     1    22 1   
     4     1    23 1   
     5     2     3 2   
     6     2    24 1   
     7     4     5 1   
     8     4     6 ar  
     9     4    18 ar  
    10     5    20 2   
    11     6     8 ar  
    12     6    37 1   
    13     7     8 1   
    14     7    25 1   
    15     8    16 ar  
    16     9    10 ar  
    17     9    14 ar  
    18     9    20 1   
    19    10    11 ar  
    20    10    15 1   
    21    11    12 ar  
    22    11    26 1   
    23    12    13 ar  
    24    12    27 1   
    25    13    14 ar  
    26    13    21 1   
    27    14    28 1   
    28    15    19 1   
    29    15    29 1   
    30    15    30 1   
    31    16    17 ar  
    32    16    31 1   
    33    17    18 ar  
    34    17    32 1   
    35    18    19 1   
    36    19    33 1   
    37    19    34 1   
    38    21    35 1   
    39    21    36 1   
@<TRIPOS>SUBSTRUCTURE
     1 XY5         1 TEMP              0 ****  ****    0 ROOT
