@<TRIPOS>MOLECULE
molecule
   32    34     1     0     0
SMALL
bcc


@<TRIPOS>ATOM
      1 O5'          0.0000     0.0000     0.0000 oh         1 XYA      -0.603800
      2 C5'          1.4290     0.0000     0.0000 c3         1 XYA       0.152400
      3 C4'          1.9380     0.0000     1.4430 c3         1 XYA       0.146100
      4 O4'          1.5950    -1.2410     2.0970 os         1 XYA      -0.392600
      5 C1'          2.5060    -1.3470     3.2130 c3         1 XYA       0.263800
      6 N9           2.6070    -2.7390     3.6580 na         1 XYA      -0.253000
      7 C8           2.3170    -3.8470     2.9180 cc         1 XYA       0.437700
      8 N7           2.5180    -4.9200     3.6250 nd         1 XYA      -0.591100
      9 C5           2.9540    -4.5710     4.8600 ca         1 XYA      -0.211200
     10 C6           3.3140    -5.2810     6.0170 ca         1 XYA       0.788200
     11 N1           3.6990    -4.5940     7.0870 nb         1 XYA      -0.837000
     12 C2           3.7430    -3.2750     7.0740 ca         1 XYA       0.739900
     13 N3           3.4100    -2.5680     6.0150 nb         1 XYA      -0.789000
     14 C4           3.0110    -3.1680     4.8980 ca         1 XYA       0.476800
     15 N6           3.2720    -6.6640     6.0410 nv         1 XYA      -0.984500
     16 C2'          3.8650    -0.8580     2.6650 c3         1 XYA       0.076100
     17 O2'          4.5710    -0.1080     3.6560 oh         1 XYA      -0.582800
     18 C3'          3.4810     0.0480     1.4710 c3         1 XYA       0.080100
     19 O3'          4.0210    -0.4680     0.2530 oh         1 XYA      -0.595800
     20 H5'         -0.3140     0.2340    -0.8580 ho         1 XYA       0.405000
     21 H5'1         1.7900     0.8840    -0.5110 h1         1 XYA       0.042700
     22 H5'2         1.7900    -0.8850    -0.5110 h1         1 XYA       0.042700
     23 H4'          1.5280     0.8380     1.9930 h1         1 XYA       0.072700
     24 H1'          2.1780    -0.7090     4.0250 h2         1 XYA       0.105700
     25 H8           1.9700    -3.8350     1.8920 h5         1 XYA       0.092800
     26 H2           4.0630    -2.7540     7.9680 h5         1 XYA       0.061100
     27 HN61         3.5320    -7.1590     6.8720 hn         1 XYA       0.450300
     28 HN62         2.9820    -7.1710     5.2280 hn         1 XYA       0.450300
     29 H2'          4.4570    -1.6990     2.3240 h1         1 XYA       0.075700
     30 H1           5.4970    -0.1600     3.4880 ho         1 XYA       0.411000
     31 H3'          3.8230     1.0620     1.6440 h1         1 XYA       0.063700
     32 H3           4.7830     0.0310     0.0100 ho         1 XYA       0.408000
@<TRIPOS>BOND
     1     1     2 1
     2     1    20 1
     3     2     3 1
     4     2    21 1
     5     2    22 1
     6     3     4 1
     7     3    18 1
     8     3    23 1
     9     4     5 1
    10     5     6 1
    11     5    16 1
    12     5    24 1
    13     6     7 1
    14     6    14 1
    15     7     8 2
    16     7    25 1
    17     8     9 1
    18     9    10 ar
    19     9    14 ar
    20    10    11 ar
    21    10    15 1
    22    11    12 ar
    23    12    13 ar
    24    12    26 1
    25    13    14 ar
    26    15    27 1
    27    15    28 1
    28    16    17 1
    29    16    18 1
    30    16    29 1
    31    17    30 1
    32    18    19 1
    33    18    31 1
    34    19    32 1
@<TRIPOS>SUBSTRUCTURE
     1 XYA         1 TEMP              0 ****  ****    0 ROOT
