@<TRIPOS>MOLECULE
molecule
   20    20     1     0     0
SMALL
bcc


@<TRIPOS>ATOM
      1 C1           0.0000     0.0000     0.0000 ca         1 XYD       0.164600
      2 C2           1.3880     0.0000     0.0000 ca         1 XYD      -0.101300
      3 C3           2.0760     0.0000     1.1980 ca         1 XYD      -0.121000
      4 C4           1.3850     0.0000     2.3940 ca         1 XYD      -0.132000
      5 C5           0.0030     0.0000     2.3970 ca         1 XYD      -0.084300
      6 C6          -0.6920    -0.0040     1.2050 ca         1 XYD      -0.143000
      7 N           -0.7000     0.0010    -1.2090 nv         1 XYD      -0.989200
      8 C8          -0.7460     0.0010     3.7050 c3         1 XYD      -0.046800
      9 C9           2.1430    -0.0000    -1.3040 c3         1 XYD      -0.035800
     10 H3           3.1600    -0.0000     1.1990 ha         1 XYD       0.129000
     11 H4           1.9280     0.0020     3.3320 ha         1 XYD       0.128000
     12 H6          -1.7750    -0.0040     1.2080 ha         1 XYD       0.134000
     13 H1N         -1.0410     0.8620    -1.5890 hn         1 XYD       0.425800
     14 H2N         -0.9010    -0.8640    -1.6710 hn         1 XYD       0.425800
     15 H81         -1.5040     0.7750     3.6870 hc         1 XYD       0.041367
     16 H82         -1.2180    -0.9630     3.8520 hc         1 XYD       0.041367
     17 H83         -0.0550     0.1920     4.5170 hc         1 XYD       0.041367
     18 H91          3.2050    -0.0770    -1.1070 hc         1 XYD       0.040367
     19 H92          1.8250    -0.8440    -1.9050 hc         1 XYD       0.040367
     20 H93          1.9400     0.9200    -1.8390 hc         1 XYD       0.040367
@<TRIPOS>BOND
     1     1     2 ar
     2     1     6 ar
     3     1     7 1
     4     2     3 ar
     5     2     9 1
     6     3     4 ar
     7     3    10 1
     8     4     5 ar
     9     4    11 1
    10     5     6 ar
    11     5     8 1
    12     6    12 1
    13     7    13 1
    14     7    14 1
    15     8    15 1
    16     8    16 1
    17     8    17 1
    18     9    18 1
    19     9    19 1
    20     9    20 1
@<TRIPOS>SUBSTRUCTURE
     1 XYD         1 TEMP              0 ****  ****    0 ROOT
