@<TRIPOS>MOLECULE
molecule
   19    19     1     0     0
SMALL
bcc


@<TRIPOS>ATOM
      1 O3           0.0000     0.0000     0.0000 oh         1 XYF      -0.624800
      2 C3           1.4290     0.0000     0.0000 c3         1 XYF       0.127100
      3 C4           1.9290     0.0000     1.4410 c3         1 XYF       0.079100
      4 O4           1.6660     1.2790     2.0110 oh         1 XYF      -0.621800
      5 C5           3.4220    -0.2720     1.4920 c3         1 XYF       0.371400
      6 F5           3.7810    -0.4410     2.7960 f          1 XYF      -0.261300
      7 O5           3.7450    -1.4840     0.8220 os         1 XYF      -0.492600
      8 C1           3.4400    -1.4500    -0.5840 c3         1 XYF       0.532600
      9 C2           1.9130    -1.2420    -0.7600 c3         1 XYF       0.064100
     10 O2           1.5920    -1.0690    -2.1440 oh         1 XYF      -0.619800
     11 O1           3.7490    -2.6380    -1.0770 o          1 XYF      -0.851500
     12 HO3         -0.3140     0.7820    -0.4220 ho         1 XYF       0.387000
     13 H3           1.7910     0.8890    -0.5020 h1         1 XYF       0.040700
     14 H4           1.4060    -0.7650     2.0020 h1         1 XYF       0.055700
     15 HO4          1.2350     1.1700     2.8420 ho         1 XYF       0.393000
     16 H5           3.9680     0.5540     1.0520 h2         1 XYF       0.029700
     17 H1           3.9970    -0.6640    -1.0800 h2         1 XYF      -0.045300
     18 H2           1.3940    -2.1120    -0.3780 h1         1 XYF       0.043700
     19 HO2          1.1950    -1.8570    -2.4760 ho         1 XYF       0.394000
@<TRIPOS>BOND
     1     1     2 1
     2     1    12 1
     3     2     3 1
     4     2     9 1
     5     2    13 1
     6     3     4 1
     7     3     5 1
     8     3    14 1
     9     4    15 1
    10     5     6 1
    11     5     7 1
    12     5    16 1
    13     7     8 1
    14     8     9 1
    15     8    11 1
    16     8    17 1
    17     9    10 1
    18     9    18 1
    19    10    19 1
@<TRIPOS>SUBSTRUCTURE
     1 XYF         1 TEMP              0 ****  ****    0 ROOT
