@<TRIPOS>MOLECULE
XYF
   19    19     1     0     0
SMALL
bcc


@<TRIPOS>ATOM
      1 O3         -0.0310    0.3210   -0.0090 oh        1 XYF     -0.618800
      2 C3          1.3790    0.1160   -0.0070 c3        1 XYF      0.154100
      3 C4          1.8330    0.0310    1.4550 c3        1 XYF      0.080100
      4 O4          1.6810    1.3190    2.0390 oh        1 XYF     -0.600800
      5 C5          3.3340   -0.3890    1.5210 c3        1 XYF      0.356400
      6 F5          3.6930   -0.6910    2.8220 f         1 XYF     -0.274300
      7 O5          3.6060   -1.5630    0.8310 os        1 XYF     -0.516600
      8 C1          3.3060   -1.4530   -0.6280 c3        1 XYF      0.555600
      9 C2          1.7590   -1.1900   -0.7090 c3        1 XYF     -0.000900
     10 O2          1.3480   -1.0940   -2.0660 oh        1 XYF     -0.646800
     11 O1          3.6870   -2.5630   -1.1570 o         1 XYF     -0.800500
     12 HO3        -0.3400    0.0200   -0.8730 ho        1 XYF      0.407000
     13 H3          1.8640    0.9970   -0.5100 h1        1 XYF      0.043700
     14 H4          1.2000   -0.7130    2.0090 h1        1 XYF      0.053700
     15 HO4         2.0320    1.2410    2.9350 ho        1 XYF      0.389000
     16 H5          3.9630    0.4780    1.1570 h2        1 XYF      0.019700
     17 H1          3.8220   -0.4990   -0.9790 h2        1 XYF     -0.074300
     18 H2          1.2090   -2.0480   -0.2370 h1        1 XYF      0.045700
     19 HO2         1.9780   -1.6370   -2.5610 ho        1 XYF      0.426000
@<TRIPOS>BOND
     1    1    2 1   
     2    1   12 1   
     3    2    3 1   
     4    2    9 1   
     5    2   13 1   
     6    3    4 1   
     7    3    5 1   
     8    3   14 1   
     9    4   15 1   
    10    5    6 1   
    11    5    7 1   
    12    5   16 1   
    13    7    8 1   
    14    8    9 1   
    15    8   11 1   
    16    8   17 1   
    17    9   10 1   
    18    9   18 1   
    19   10   19 1   
@<TRIPOS>SUBSTRUCTURE
     1 XYF         1 TEMP              0 ****  ****    0 ROOT
