@<TRIPOS>MOLECULE
molecule
   21    20     1     0     0
SMALL
bcc


@<TRIPOS>ATOM
      1 O1B          0.0000     0.0000     0.0000 o          1 XYH      -0.833300
      2 O1A          1.8290    -0.0000    -1.0570 o          1 XYH      -0.833300
      3 C1           1.2200     0.0000     0.0000 c          1 XYH       0.902600
      4 C2           1.9730     0.0000     1.3050 c3         1 XYH       0.006100
      5 OH2          3.3740     0.1180     1.0460 oh         1 XYH      -0.569800
      6 C3           1.7010    -1.3080     2.0510 c3         1 XYH       0.184100
      7 OH3          2.0250    -2.4140     1.2050 oh         1 XYH      -0.560800
      8 C4           2.5620    -1.3630     3.3140 c3         1 XYH       0.082100
      9 OH4          3.9350    -1.1820     2.9630 oh         1 XYH      -0.506800
     10 C5           2.3870    -2.7020     3.9830 c          1 XYH       0.640100
     11 OH5          3.3240    -3.4670     4.0630 o          1 XYH      -0.564100
     12 N6           1.1890    -3.0480     4.4940 ns         1 XYH      -0.484400
     13 OH6          1.0240    -4.3060     5.1220 oh         1 XYH      -0.378100
     14 H21          1.6460     0.8360     1.9110 h1         1 XYH       0.000700
     15 HO2          3.5870     1.0200     0.8730 ho         1 XYH       0.377000
     16 H31          0.6540    -1.3570     2.3250 h1         1 XYH       0.038700
     17 HO3          1.2350    -2.8730     0.9710 ho         1 XYH       0.395000
     18 H41          2.2570    -0.5770     3.9940 h1         1 XYH       0.027700
     19 HO4          4.4130    -0.8680     3.7130 ho         1 XYH       0.376000
     20 HN6          0.4320    -2.3930     4.4820 hn         1 XYH       0.315500
     21 HO6          0.1300    -4.3990     5.4090 ho         1 XYH       0.386000
@<TRIPOS>BOND
     1     1     3 1
     2     2     3 1
     3     3     4 1
     4     4     5 1
     5     4     6 1
     6     4    14 1
     7     5    15 1
     8     6     7 1
     9     6     8 1
    10     6    16 1
    11     7    17 1
    12     8     9 1
    13     8    10 1
    14     8    18 1
    15     9    19 1
    16    10    11 2
    17    10    12 1
    18    12    13 1
    19    12    20 1
    20    13    21 1
@<TRIPOS>SUBSTRUCTURE
     1 XYH         1 TEMP              0 ****  ****    0 ROOT
