@<TRIPOS>MOLECULE
XYL
   22    21     1     0     0
SMALL
bcc


@<TRIPOS>ATOM
      1 C1         -0.0260    0.3190    0.1530 c3        1 XYL      0.089400
      2 C2          1.4620   -0.0290    0.0280 c3        1 XYL      0.117100
      3 C3          2.0660   -0.2260    1.4300 c3        1 XYL      0.155100
      4 C4          3.5960   -0.0560    1.4180 c3        1 XYL      0.117100
      5 C5          4.0910    0.2560    2.8360 c3        1 XYL      0.089400
      6 O1         -0.5300    0.3890   -1.1720 oh        1 XYL     -0.613800
      7 O2          1.6270   -1.2500   -0.6740 oh        1 XYL     -0.593800
      8 O3          1.6970   -1.4740    1.9740 oh        1 XYL     -0.594800
      9 O4          4.1500   -1.2770    0.9580 oh        1 XYL     -0.593800
     10 O5          5.5070    0.3020    2.7610 oh        1 XYL     -0.613800
     11 H11        -0.1560    1.3110    0.6600 h1        1 XYL      0.041450
     12 H12        -0.5540   -0.4790    0.7380 h1        1 XYL      0.041450
     13 H2          1.9960    0.7950   -0.5200 h1        1 XYL      0.050700
     14 H3          1.6210    0.5380    2.1290 h1        1 XYL      0.069700
     15 H4          3.8950    0.7780    0.7240 h1        1 XYL      0.050700
     16 H51         3.6970    1.2490    3.1790 h1        1 XYL      0.041450
     17 H52         3.7540   -0.5500    3.5390 h1        1 XYL      0.041450
     18 HO1        -1.4910    0.3990   -1.1060 ho        1 XYL      0.410000
     19 HO2         1.1300   -1.1620   -1.4990 ho        1 XYL      0.423000
     20 HO3         2.0660   -2.1560    1.3920 ho        1 XYL      0.440000
     21 HO4         5.1070   -1.2090    1.0810 ho        1 XYL      0.423000
     22 HO5         5.8350    0.2870    3.6670 ho        1 XYL      0.410000
@<TRIPOS>BOND
     1    1    2 1   
     2    1    6 1   
     3    1   11 1   
     4    1   12 1   
     5    2    3 1   
     6    2    7 1   
     7    2   13 1   
     8    3    4 1   
     9    3    8 1   
    10    3   14 1   
    11    4    5 1   
    12    4    9 1   
    13    4   15 1   
    14    5   10 1   
    15    5   16 1   
    16    5   17 1   
    17    6   18 1   
    18    7   19 1   
    19    8   20 1   
    20    9   21 1   
    21   10   22 1   
@<TRIPOS>SUBSTRUCTURE
     1 XYL         1 TEMP              0 ****  ****    0 ROOT
