@<TRIPOS>MOLECULE
molecule
   22    21     1     0     0
SMALL
bcc


@<TRIPOS>ATOM
      1 C1           0.0000     0.0000     0.0000 c3         1 XYL       0.112900
      2 C2           1.5290     0.0000     0.0000 c3         1 XYL       0.147100
      3 C3           2.0410     0.0000     1.4410 c3         1 XYL       0.150100
      4 C4           3.5700     0.0000     1.4410 c3         1 XYL       0.147100
      5 C5           4.0820     0.0000     2.8810 c3         1 XYL       0.112900
      6 O1          -0.4780    -0.0000    -1.3460 oh         1 XYL      -0.610300
      7 O2           2.0050    -1.1670    -0.6740 oh         1 XYL      -0.556300
      8 O3           1.5640    -1.1650     2.1150 oh         1 XYL      -0.565800
      9 O4           4.0450    -1.1670     0.7660 oh         1 XYL      -0.556300
     10 O5           5.5100     0.0000     2.8810 oh         1 XYL      -0.610300
     11 H11         -0.3610    -0.8840     0.5110 h1         1 XYL       0.031200
     12 H12         -0.3610     0.8840     0.5110 h1         1 XYL       0.031200
     13 H2           1.8900     0.8840    -0.5110 h1         1 XYL       0.035700
     14 H3           1.6800     0.8850     1.9510 h1         1 XYL       0.033700
     15 H4           3.9310     0.8840     0.9290 h1         1 XYL       0.035700
     16 H51          3.7210    -0.8840     3.3920 h1         1 XYL       0.031200
     17 H52          3.7210     0.8850     3.3920 h1         1 XYL       0.031200
     18 HO1         -1.4090     0.1520    -1.3490 ho         1 XYL       0.404000
     19 HO2          2.1280    -0.9740    -1.5890 ho         1 XYL       0.400500
     20 HO3          0.9700    -0.9100     2.8020 ho         1 XYL       0.389000
     21 HO4          4.8240    -0.9530     0.2790 ho         1 XYL       0.400500
     22 HO5          5.8240     0.2950     3.7200 ho         1 XYL       0.404000
@<TRIPOS>BOND
     1     1     2 1
     2     1     6 1
     3     1    11 1
     4     1    12 1
     5     2     3 1
     6     2     7 1
     7     2    13 1
     8     3     4 1
     9     3     8 1
    10     3    14 1
    11     4     5 1
    12     4     9 1
    13     4    15 1
    14     5    10 1
    15     5    16 1
    16     5    17 1
    17     6    18 1
    18     7    19 1
    19     8    20 1
    20     9    21 1
    21    10    22 1
@<TRIPOS>SUBSTRUCTURE
     1 XYL         1 TEMP              0 ****  ****    0 ROOT
