@<TRIPOS>MOLECULE
XYM
   15    14     1     0     0
SMALL
bcc


@<TRIPOS>ATOM
      1 OAA         0.5420   -1.0490    0.1420 o         1 XYM     -0.852800
      2 OAB         5.5910    0.5290   -5.0640 o         1 XYM     -0.848300
      3 OAC         1.1290    0.9750    0.8530 o         1 XYM     -0.852800
      4 OAD         7.5440   -0.2800   -4.3480 o         1 XYM     -0.848300
      5 OAE         6.6500   -0.8680   -1.9150 oh        1 XYM     -0.544100
      6 CAF         4.4790   -0.0680   -2.4250 c2        1 XYM     -0.156400
      7 CAG         2.1100    0.1920   -1.2080 c3        1 XYM     -0.133300
      8 SAH         3.7640   -0.3830   -0.9250 ss        1 XYM     -0.223700
      9 CAI         1.2160    0.0170    0.0300 c         1 XYM      0.924600
     10 CAJ         6.3170    0.0110   -4.1730 c         1 XYM      0.893800
     11 CAK         5.7510   -0.3030   -2.7990 ce        1 XYM     -0.011100
     12 HOAE        7.4930   -0.9430   -2.3970 ho        1 XYM      0.425000
     13 HAF         3.8370    0.3850   -3.1990 h4        1 XYM      0.146000
     14 HAG         2.1330    1.2740   -1.4780 h1        1 XYM      0.040700
     15 HAGA        1.6580   -0.3750   -2.0540 h1        1 XYM      0.040700
@<TRIPOS>BOND
     1    1    9 1   
     2    2   10 1   
     3    3    9 1   
     4    4   10 1   
     5    5   11 1   
     6    5   12 1   
     7    6    8 1   
     8    6   11 2   
     9    6   13 1   
    10    7    8 1   
    11    7    9 1   
    12    7   14 1   
    13    7   15 1   
    14   10   11 1   
@<TRIPOS>SUBSTRUCTURE
     1 XYM         1 TEMP              0 ****  ****    0 ROOT
