@<TRIPOS>MOLECULE
molecule
   15    14     1     0     0
SMALL
bcc


@<TRIPOS>ATOM
      1 OAA          0.0000     0.0000     0.0000 o          1 XYM      -0.850800
      2 OAB          5.5500    -0.0000    -5.1090 o          1 XYM      -0.839800
      3 OAC          1.9450     0.0000     1.0460 o          1 XYM      -0.850800
      4 OAD          7.6550     0.0000    -4.3910 o          1 XYM      -0.839800
      5 OAE          6.6940     0.0000    -1.7940 oh         1 XYM      -0.565100
      6 CAF          4.4930    -0.0000    -2.6240 c2         1 XYM      -0.283400
      7 CAG          2.0960    -0.0000    -1.3050 c3         1 XYM      -0.071300
      8 SAH          3.8750     0.0000    -0.9740 ss         1 XYM      -0.322700
      9 CAI          1.3420     0.0000     0.0000 c          1 XYM       0.900600
     10 CAJ          6.3230    -0.0000    -4.1700 c          1 XYM       0.866800
     11 CAK          5.8270    -0.0000    -2.8460 ce         1 XYM       0.071900
     12 HOAE         7.0090     0.8760    -1.6460 ho         1 XYM       0.402000
     13 HAF          4.4500    -0.8750    -1.9870 h4         1 XYM       0.261000
     14 HAG          1.8350    -0.8850    -1.8730 h1         1 XYM       0.061200
     15 HAGA         1.8350     0.8850    -1.8730 h1         1 XYM       0.061200
@<TRIPOS>BOND
     1     1     9 1
     2     2    10 1
     3     3     9 1
     4     4    10 1
     5     5    11 1
     6     6     8 1
     7     6    11 2
     8     7     8 1
     9     7     9 1
    10    10    11 1
    11     5    12 1
    12     6    13 1
    13     7    14 1
    14     7    15 1
@<TRIPOS>SUBSTRUCTURE
     1 XYM         1 TEMP              0 ****  ****    0 ROOT
