@<TRIPOS>MOLECULE
XYN
   15    14     1     0     0
SMALL
bcc


@<TRIPOS>ATOM
      1 OBA         0.5770    1.0070    0.5110 o         1 XYN     -0.849300
      2 OBB         2.7870   -0.9090   -6.9970 o         1 XYN     -0.830300
      3 OBC        -0.0110   -1.1970   -5.5040 o         1 XYN     -0.579100
      4 OBD         1.7600   -0.8700    0.6750 o         1 XYN     -0.849300
      5 OBE         1.6120    0.9860   -7.1600 o         1 XYN     -0.830300
      6 CBF         1.8010    0.2890   -1.4390 c3        1 XYN     -0.119300
      7 CBG         1.6110   -0.0670   -4.1020 c3        1 XYN     -0.126300
      8 SBH         0.7290   -0.4850   -2.6190 ss        1 XYN     -0.294200
      9 CBI         1.3230    0.1150    0.0120 c         1 XYN      0.926600
     10 CBJ         1.8730   -0.1240   -6.6200 c         1 XYN      0.847600
     11 CBK         1.0300   -0.5410   -5.4020 c         1 XYN      0.491100
     12 HBF         2.8220   -0.1500   -1.5280 h1        1 XYN      0.035700
     13 HBFA        1.8620    1.3810   -1.6610 h1        1 XYN      0.035700
     14 HBG         1.7000    1.0480   -4.1740 h1        1 XYN      0.070700
     15 HBGA        2.6500   -0.4820   -4.0400 h1        1 XYN      0.070700
@<TRIPOS>BOND
     1    1    9 1   
     2    2   10 1   
     3    3   11 2   
     4    4    9 1   
     5    5   10 1   
     6    6    8 1   
     7    6    9 1   
     8    6   12 1   
     9    6   13 1   
    10    7    8 1   
    11    7   11 1   
    12    7   14 1   
    13    7   15 1   
    14   10   11 1   
@<TRIPOS>SUBSTRUCTURE
     1 XYN         1 TEMP              0 ****  ****    0 ROOT
