@<TRIPOS>MOLECULE
molecule
   15    14     1     0     0
SMALL
bcc


@<TRIPOS>ATOM
      1 OBA          0.0000     0.0000     0.0000 o          1 XYN      -0.849800
      2 OBB          2.8780    -0.0000    -6.8180 o          1 XYN      -0.831800
      3 OBC         -0.1880    -0.0000    -5.3050 o          1 XYN      -0.523100
      4 OBD          1.8800     0.0000     1.1620 o          1 XYN      -0.849800
      5 OBE          0.9150    -0.0000    -7.8470 o          1 XYN      -0.831800
      6 CBF          1.9620    -0.0000    -1.3050 c3         1 XYN      -0.090300
      7 CBG          1.8610    -0.0000    -4.1430 c3         1 XYN      -0.114300
      8 SBH          0.7830    -0.0000    -2.6840 ss         1 XYN      -0.309200
      9 CBI          1.2090     0.0000     0.0000 c          1 XYN       0.907600
     10 CBJ          1.6690    -0.0000    -6.7320 c          1 XYN       0.810600
     11 CBK          1.0170    -0.0000    -5.3920 c          1 XYN       0.484100
     12 HBF          2.5850    -0.8840    -1.3630 h1         1 XYN       0.037700
     13 HBFA         2.5850     0.8840    -1.3630 h1         1 XYN       0.037700
     14 HBG          2.4860    -0.8850    -4.1300 h1         1 XYN       0.061700
     15 HBGA         2.4860     0.8850    -4.1300 h1         1 XYN       0.061700
@<TRIPOS>BOND
     1     1     9 1
     2     2    10 1
     3     3    11 2
     4     4     9 1
     5     5    10 1
     6     6     8 1
     7     6     9 1
     8     7     8 1
     9     7    11 1
    10    10    11 1
    11     6    12 1
    12     6    13 1
    13     7    14 1
    14     7    15 1
@<TRIPOS>SUBSTRUCTURE
     1 XYN         1 TEMP              0 ****  ****    0 ROOT
