@<TRIPOS>MOLECULE
molecule
   48    49     1     0     0
SMALL
bcc


@<TRIPOS>ATOM
      1 O8           0.0000     0.0000     0.0000 o          1 XYT      -0.909167
      2 P            1.4800     0.0000     0.0000 p5         1 XYT       1.178900
      3 O9           2.0170     0.0000     1.5180 o          1 XYT      -0.909167
      4 O10          2.0160    -1.3140    -0.7600 o          1 XYT      -0.909167
      5 O7           2.0170     1.3150    -0.7590 os         1 XYT      -0.562200
      6 C8           1.6270     1.6590    -2.0900 c3         1 XYT       0.236400
      7 C7           2.3170     2.9610    -2.5030 c3         1 XYT       0.131100
      8 C9           1.8060     3.3950    -3.8790 c3         1 XYT       0.100100
      9 O11          0.4030     3.6590    -3.8060 oh         1 XYT      -0.593800
     10 C10          2.5440     4.6660    -4.3110 c3         1 XYT       0.106100
     11 O12          2.1250     5.0380    -5.6260 oh         1 XYT      -0.620800
     12 C11          4.0510     4.3930    -4.3100 c3         1 XYT       0.111100
     13 O13          4.7540     5.5920    -4.6420 oh         1 XYT      -0.614800
     14 C6           4.4760     3.9200    -2.9170 c3         1 XYT       0.336900
     15 O6           3.7290     2.7540    -2.5630 os         1 XYT      -0.363600
     16 O5           5.8700     3.6100    -2.9230 os         1 XYT      -0.422600
     17 C5           6.3950     3.2650    -1.6400 c3         1 XYT       0.117100
     18 C4           6.2810     1.7520    -1.4290 c3         1 XYT       0.128100
     19 O4           4.9030     1.3730    -1.4270 oh         1 XYT      -0.509800
     20 C3           6.9160     1.3850    -0.0850 c3         1 XYT       0.104100
     21 O3           6.8790    -0.0330     0.0890 oh         1 XYT      -0.594800
     22 C2           8.3690     1.8660    -0.0680 c3         1 XYT       0.317900
     23 O2           8.9520     1.5770     1.2050 oh         1 XYT      -0.582800
     24 O1           8.4060     3.2750    -0.3000 os         1 XYT      -0.441600
     25 C1           7.8690     3.6730    -1.5630 c3         1 XYT       0.162100
     26 C            7.9860     5.1910    -1.7120 c3         1 XYT       0.145400
     27 O            9.3660     5.5600    -1.7570 oh         1 XYT      -0.614800
     28 H3           1.9200     0.8650    -2.7670 h1         1 XYT       0.026200
     29 H4           0.5530     1.7910    -2.1280 h1         1 XYT       0.026200
     30 H5           2.0980     3.7350    -1.7780 h1         1 XYT       0.051700
     31 H6           1.9940     2.6070    -4.5980 h1         1 XYT       0.051700
     32 H7          -0.0310     3.2550    -4.5390 ho         1 XYT       0.398000
     33 H8           2.3230     5.4660    -3.6140 h1         1 XYT       0.052700
     34 H9           1.7320     5.8950    -5.6000 ho         1 XYT       0.397000
     35 H10          4.2770     3.6220    -5.0370 h1         1 XYT       0.059700
     36 H11          5.1410     5.5030    -5.4970 ho         1 XYT       0.397000
     37 H12          4.2790     4.7040    -2.1960 h2         1 XYT       0.031700
     38 H13          5.8390     3.7800    -0.8650 h1         1 XYT       0.075700
     39 H14          6.8020     1.2370    -2.2270 h1         1 XYT       0.027700
     40 H15          4.8120     0.5130    -1.8020 ho         1 XYT       0.434000
     41 H16          6.3680     1.8670     0.7150 h1         1 XYT       0.086700
     42 H17          6.6750    -0.2340     0.9870 ho         1 XYT       0.428000
     43 H18          8.9240     1.3600    -0.8480 h2         1 XYT       0.019700
     44 H19          9.8610     1.3570     1.0920 ho         1 XYT       0.394000
     45 H20          8.4190     3.1830    -2.3570 h1         1 XYT       0.046700
     46 H21          7.5110     5.6760    -0.8680 h1         1 XYT       0.040700
     47 H22          7.5010     5.5030    -2.6290 h1         1 XYT       0.040700
     48 H23          9.4380     6.4940    -1.8670 ho         1 XYT       0.388000
@<TRIPOS>BOND
     1    21    20 1
     2    23    22 1
     3     1     2 1
     4    20    22 1
     5    20    18 1
     6    22    24 1
     7    18    19 1
     8    18    17 1
     9     2     3 1
    10     2     5 1
    11     2     4 1
    12    24    25 1
    13     5     6 1
    14    17    25 1
    15    17    16 1
    16    25    26 1
    17    16    14 1
    18    15    14 1
    19    15     7 1
    20    14    12 1
    21     6     7 1
    22    12    10 1
    23    12    13 1
    24    26    27 1
    25     8     7 1
    26     8    10 1
    27     8     9 1
    28    11    10 1
    29     6    28 1
    30     6    29 1
    31     7    30 1
    32     8    31 1
    33     9    32 1
    34    10    33 1
    35    11    34 1
    36    12    35 1
    37    13    36 1
    38    14    37 1
    39    17    38 1
    40    18    39 1
    41    19    40 1
    42    20    41 1
    43    21    42 1
    44    22    43 1
    45    23    44 1
    46    25    45 1
    47    26    46 1
    48    26    47 1
    49    27    48 1
@<TRIPOS>SUBSTRUCTURE
     1 XYT         1 TEMP              0 ****  ****    0 ROOT
