@<TRIPOS>MOLECULE
XYW
   72    77     1     0     0
SMALL
bcc


@<TRIPOS>ATOM
      1 C1           0.0000     0.0000     0.0000 c3         1 XYW       0.028700
      2 S2           1.8140     0.0000     0.0000 sy         1 XYW       0.874300
      3 O3           2.3120     0.0000     1.3300 o          1 XYW      -0.590300
      4 O4           2.3130    -0.9120    -0.9690 o          1 XYW      -0.590300
      5 C5           2.2540     1.5870    -0.6280 ca         1 XYW      -0.136500
      6 C6           2.4260     2.6500     0.2390 ca         1 XYW      -0.019000
      7 C7           2.7720     3.8960    -0.2500 ca         1 XYW      -0.110000
      8 C8           2.9460     4.0830    -1.6070 ca         1 XYW      -0.086000
      9 C9           2.7730     3.0170    -2.4810 ca         1 XYW      -0.028400
     10 N10          2.9490     3.2030    -3.8560 nu         1 XYW      -0.287300
     11 C11          2.1800     2.4830    -4.7560 ca         1 XYW       0.709900
     12 N12          1.2080     1.7060    -4.2980 nb         1 XYW      -0.700000
     13 C13          0.4500     1.0010    -5.1240 ca         1 XYW       0.498200
     14 C14          0.6780     1.0780    -6.4840 ca         1 XYW      -0.409600
     15 C15          1.7130     1.9070    -6.9420 ca         1 XYW       0.575800
     16 N16          2.4320     2.5930    -6.0500 nb         1 XYW      -0.682000
     17 C17          1.9960     2.0250    -8.3810 cc         1 XYW      -0.212900
     18 S18          1.0390     1.3330    -9.6880 ss         1 XYW      -0.295300
     19 C19          2.1130     1.9840   -10.8450 cc         1 XYW       0.548300
     20 N20          3.0700     2.6420   -10.2660 nd         1 XYW      -0.597000
     21 C21          3.0510     2.6980    -8.9450 cd         1 XYW       0.471800
     22 C22          4.0730     3.4160    -8.1500 ca         1 XYW      -0.121500
     23 C23          4.6540     2.8040    -7.0400 ca         1 XYW      -0.053000
     24 C24          5.6060     3.4760    -6.2990 ca         1 XYW      -0.105000
     25 C25          5.9880     4.7550    -6.6540 ca         1 XYW      -0.134000
     26 C26          5.4150     5.3750    -7.7590 ca         1 XYW       0.026600
     27 N27          5.8030     6.6690    -8.1140 nu         1 XYW      -0.388500
     28 S28          7.4080     7.0760    -8.1340 sy         1 XYW       1.042200
     29 O29          7.4740     8.4290    -8.5630 o          1 XYW      -0.571300
     30 O30          7.9520     6.6230    -6.9010 o          1 XYW      -0.571300
     31 C31          8.1730     6.1160    -9.3980 ca         1 XYW      -0.234500
     32 C32          8.2450     6.6040   -10.6910 ca         1 XYW       0.247400
     33 F33          7.7280     7.8170   -10.9850 f          1 XYW      -0.105900
     34 C34          8.8470     5.8500   -11.6840 ca         1 XYW      -0.179000
     35 C35          9.3760     4.6080   -11.3840 ca         1 XYW       0.007000
     36 C36          9.3050     4.1190   -10.0930 ca         1 XYW      -0.179000
     37 C37          8.7090     4.8760    -9.0980 ca         1 XYW       0.247400
     38 F38          8.6450     4.3990    -7.8350 f          1 XYW      -0.105900
     39 C39          4.4620     4.7060    -8.5120 ca         1 XYW      -0.093000
     40 N40          1.9810     1.8320   -12.2120 nh         1 XYW      -0.405300
     41 C41          0.7900     1.0340   -12.5400 c3         1 XYW       0.084800
     42 C42          0.6490     0.9410   -14.0620 c3         1 XYW       0.214900
     43 O43          1.8450     0.3820   -14.6130 os         1 XYW      -0.407600
     44 C44          3.0230     1.1350   -14.3130 c3         1 XYW       0.214900
     45 C45          3.1890     1.2300   -12.7940 c3         1 XYW       0.084800
     46 C46          2.4320     1.7660    -1.9860 ca         1 XYW      -0.006000
     47 H11C        -0.3610    -0.1320    -1.0130 h1         1 XYW       0.060033
     48 H12C        -0.3610     0.9430     0.3920 h1         1 XYW       0.060033
     49 H13C        -0.3610    -0.8110     0.6210 h1         1 XYW       0.060033
     50 H6           2.2900     2.5050     1.3040 ha         1 XYW       0.123000
     51 H46          2.2970     0.9320    -2.6650 ha         1 XYW       0.152000
     52 H7           2.9060     4.7270     0.4330 ha         1 XYW       0.108000
     53 H8           3.2160     5.0600    -1.9900 ha         1 XYW       0.107000
     54 H10          3.6090     3.8770    -4.1890 hn         1 XYW       0.301800
     55 H13         -0.3410     0.3710    -4.7370 h4         1 XYW      -0.017900
     56 H14          0.0730     0.5100    -7.1810 ha         1 XYW       0.134000
     57 H23          4.3580     1.8010    -6.7580 ha         1 XYW       0.113000
     58 H39          4.0140     5.1870    -9.3730 ha         1 XYW       0.117000
     59 H24          6.0560     2.9980    -5.4370 ha         1 XYW       0.107000
     60 H25          6.7350     5.2780    -6.0700 ha         1 XYW       0.169000
     61 H27          5.1100     7.3610    -8.3200 hn         1 XYW       0.348800
     62 H34          8.9030     6.2320   -12.6960 ha         1 XYW       0.129000
     63 H35          9.8440     4.0170   -12.1610 ha         1 XYW       0.109000
     64 H36          9.7220     3.1470    -9.8590 ha         1 XYW       0.129000
     65 H411        -0.0890     1.5110   -12.1240 h1         1 XYW       0.036950
     66 H412         0.8980     0.0390   -12.1260 h1         1 XYW       0.036950
     67 H451         4.0480     1.8490   -12.5630 h1         1 XYW       0.036950
     68 H452         3.3310     0.2380   -12.3840 h1         1 XYW       0.036950
     69 H421         0.4920     1.9310   -14.4710 h1         1 XYW       0.018200
     70 H422        -0.1930     0.3040   -14.3070 h1         1 XYW       0.018200
     71 H441         3.8870     0.6380   -14.7400 h1         1 XYW       0.018200
     72 H442         2.9310     2.1310   -14.7290 h1         1 XYW       0.018200
@<TRIPOS>BOND
     1     1     2 1   
     2     1    47 1   
     3     1    48 1   
     4     1    49 1   
     5     2     3 2   
     6     2     4 2   
     7     2     5 1   
     8     5     6 ar  
     9     5    46 ar  
    10     6     7 ar  
    11     6    50 1   
    12     7     8 ar  
    13     7    52 1   
    14     8     9 ar  
    15     8    53 1   
    16     9    10 1   
    17     9    46 ar  
    18    10    11 1   
    19    10    54 1   
    20    11    12 ar  
    21    11    16 ar  
    22    12    13 ar  
    23    13    14 ar  
    24    13    55 1   
    25    14    15 ar  
    26    14    56 1   
    27    15    16 ar  
    28    15    17 1   
    29    17    18 1   
    30    17    21 2   
    31    18    19 1   
    32    19    20 2   
    33    19    40 1   
    34    20    21 1   
    35    21    22 1   
    36    22    23 ar  
    37    22    39 ar  
    38    23    24 ar  
    39    23    57 1   
    40    24    25 ar  
    41    24    59 1   
    42    25    26 ar  
    43    25    60 1   
    44    26    27 1   
    45    26    39 ar  
    46    27    28 1   
    47    27    61 1   
    48    28    29 2   
    49    28    30 2   
    50    28    31 1   
    51    31    32 ar  
    52    31    37 ar  
    53    32    33 1   
    54    32    34 ar  
    55    34    35 ar  
    56    34    62 1   
    57    35    36 ar  
    58    35    63 1   
    59    36    37 ar  
    60    36    64 1   
    61    37    38 1   
    62    39    58 1   
    63    40    41 1   
    64    40    45 1   
    65    41    42 1   
    66    41    65 1   
    67    41    66 1   
    68    42    43 1   
    69    42    69 1   
    70    42    70 1   
    71    43    44 1   
    72    44    45 1   
    73    44    71 1   
    74    44    72 1   
    75    45    67 1   
    76    45    68 1   
    77    46    51 1   
@<TRIPOS>SUBSTRUCTURE
     1 XYW         1 TEMP              0 ****  ****    0 ROOT
