@<TRIPOS>MOLECULE
molecule
   49    51     1     0     0
SMALL
bcc


@<TRIPOS>ATOM
      1 C1           0.0000     0.0000     0.0000 c3         1 XYY       0.232100
      2 Cl1         -0.2750    -1.2560     2.4470 cl         1 XYY      -0.158400
      3 N2           1.4640     0.0000     0.0000 n3         1 XYY      -0.809500
      4 C3           2.1970     0.0000     1.2690 c3         1 XYY       0.295100
      5 C4           2.3400    -1.4160     1.7650 ca         1 XYY      -0.114300
      6 C5           3.5590    -2.0610     1.6710 ca         1 XYY      -0.049000
      7 C6           3.6920    -3.3600     2.1260 ca         1 XYY      -0.012300
      8 C7           2.6050    -4.0140     2.6760 ca         1 XYY      -0.111000
      9 C8           1.3850    -3.3700     2.7710 ca         1 XYY      -0.131000
     10 C9           1.2550    -2.0680     2.3210 ca         1 XYY       0.033400
     11 C11          5.0210    -4.0630     2.0220 c3         1 XYY       0.027900
     12 C12          4.8290    -5.4160     1.3350 c3         1 XYY      -0.181400
     13 C13          4.3810    -5.1980    -0.0880 c          1 XYY       0.884600
     14 O14          4.2300    -4.0760    -0.5080 o          1 XYY      -0.838300
     15 O15          4.1490    -6.2510    -0.8870 o          1 XYY      -0.838300
     16 C16          5.5860    -4.2760     3.4030 ca         1 XYY      -0.083300
     17 C17          4.9640    -5.1660     4.2680 ca         1 XYY      -0.067000
     18 C18          5.4660    -5.3740     5.5340 ca         1 XYY      -0.161000
     19 C19          6.6020    -4.6880     5.9460 ca         1 XYY      -0.074200
     20 N20          7.3360    -4.6660     7.1080 na         1 XYY       0.038900
     21 C21          7.0760    -5.4410     8.3230 c3         1 XYY       0.070600
     22 N22          8.3840    -3.7570     6.9000 nc         1 XYY      -0.170400
     23 N23          8.2960    -3.2650     5.7150 nd         1 XYY      -0.217400
     24 C24          7.2320    -3.7860     5.0700 ca         1 XYY       0.017400
     25 C25          6.7050    -3.5980     3.7860 ca         1 XYY      -0.057000
     26 S26          2.2930     0.0010    -1.4340 s6         1 XYY       1.323900
     27 O27          3.5390    -0.6050    -1.1190 o          1 XYY      -0.600800
     28 O28          1.3970    -0.6040    -2.3560 o          1 XYY      -0.600800
     29 C29          2.5200     1.7580    -1.8250 c3         1 XYY      -0.266300
     30 H11          5.7050    -3.4560     1.4420 hc         1 XYY       0.084700
     31 H1          -0.3610     0.5100    -0.8850 h1         1 XYY       0.038700
     32 H1A         -0.3610    -1.0210     0.0010 h1         1 XYY       0.038700
     33 H1B         -0.3610     0.5110     0.8840 h1         1 XYY       0.038700
     34 H3           3.1790     0.4320     1.1200 h1         1 XYY       0.049200
     35 H3A          1.6520     0.5850     2.0010 h1         1 XYY       0.049200
     36 H5           4.4110    -1.5490     1.2400 ha         1 XYY       0.157000
     37 H7           2.7090    -5.0320     3.0300 ha         1 XYY       0.133000
     38 H8           0.5340    -3.8820     3.2030 ha         1 XYY       0.127000
     39 H12          4.0780    -5.9880     1.8660 hc         1 XYY       0.035200
     40 H12A         5.7670    -5.9580     1.3390 hc         1 XYY       0.035200
     41 H17          4.0820    -5.7050     3.9440 ha         1 XYY       0.150000
     42 H18          4.9770    -6.0700     6.2050 ha         1 XYY       0.123000
     43 H21          7.8510    -5.2380     9.0530 h1         1 XYY       0.049700
     44 H21A         6.1130    -5.1600     8.7320 h1         1 XYY       0.049700
     45 H21B         7.0740    -6.4980     8.0840 h1         1 XYY       0.049700
     46 H25          7.2010    -2.9330     3.0890 ha         1 XYY       0.150000
     47 H29          3.0540     1.8530    -2.7620 h1         1 XYY       0.085700
     48 H29A         1.5520     2.2360    -1.9110 h1         1 XYY       0.085700
     49 H29B         3.0890     2.2330    -1.0350 h1         1 XYY       0.085700
@<TRIPOS>BOND
     1    33     1 1
     2     1    31 1
     3     1    32 1
     4     1     3 1
     5    10     2 1
     6     4     3 1
     7     3    26 1
     8    34     4 1
     9     5     4 1
    10     4    35 1
    11     6     5 ar
    12     5    10 ar
    13     7     6 ar
    14    36     6 1
    15    11     7 1
    16     7     8 ar
    17    37     8 1
    18     8     9 ar
    19     9    38 1
    20     9    10 ar
    21    12    11 1
    22    16    11 1
    23    30    11 1
    24    13    12 1
    25    12    39 1
    26    12    40 1
    27    14    13 1
    28    15    13 1
    29    17    16 ar
    30    16    25 ar
    31    18    17 ar
    32    41    17 1
    33    42    18 1
    34    18    19 ar
    35    20    19 1
    36    19    24 ar
    37    21    20 1
    38    20    22 1
    39    43    21 1
    40    21    45 1
    41    21    44 1
    42    22    23 2
    43    24    23 1
    44    24    25 ar
    45    25    46 1
    46    29    26 1
    47    26    27 2
    48    26    28 2
    49    47    29 1
    50    49    29 1
    51    29    48 1
@<TRIPOS>SUBSTRUCTURE
     1 XYY         1 TEMP              0 ****  ****    0 ROOT
