@<TRIPOS>MOLECULE
molecule
   20    20     1     0     0
SMALL
bcc


@<TRIPOS>ATOM
      1 C4           0.0000     0.0000     0.0000 c3         1 XYZ       0.153100
      2 O            1.4440     0.0000     0.0000 os         1 XYZ      -0.403600
      3 C1           1.8630     0.0000     1.3750 c3         1 XYZ       0.326900
      4 C2           0.7380     0.6580     2.1970 c3         1 XYZ       0.087100
      5 O2           0.2470    -0.2480     3.1870 oh         1 XYZ      -0.600800
      6 C3          -0.3650     0.9690     1.1540 c3         1 XYZ       0.100100
      7 O3          -0.2880     2.3280     0.7190 oh         1 XYZ      -0.582800
      8 C5          -0.5380     0.5230    -1.3330 c3         1 XYZ       0.149400
      9 O5          -0.2450    -0.4190    -2.3670 oh         1 XYZ      -0.604800
     10 O1           3.0720     0.7500     1.5140 oh         1 XYZ      -0.591800
     11 H4          -0.3780    -0.9940     0.2070 h1         1 XYZ       0.070700
     12 H1           2.0150    -1.0180     1.7110 h2         1 XYZ       0.052700
     13 H2           1.0920     1.5740     2.6550 h1         1 XYZ       0.077700
     14 HO2          0.3330     0.1430     4.0410 ho         1 XYZ       0.411000
     15 H3          -1.3460     0.7380     1.5520 h1         1 XYZ       0.058700
     16 HO3         -0.9310     2.8420     1.1770 ho         1 XYZ       0.403000
     17 H51         -0.0690     1.4720    -1.5650 h1         1 XYZ       0.039200
     18 H52         -1.6110     0.6590    -1.2610 h1         1 XYZ       0.039200
     19 H5          -0.6670    -0.1490    -3.1670 ho         1 XYZ       0.402000
     20 HO1          3.8120     0.1740     1.4160 ho         1 XYZ       0.414000
@<TRIPOS>BOND
     1     1     2 1
     2     1     6 1
     3     1     8 1
     4     1    11 1
     5     2     3 1
     6     3     4 1
     7     3    10 1
     8     3    12 1
     9     4     5 1
    10     4     6 1
    11     4    13 1
    12     5    14 1
    13     6     7 1
    14     6    15 1
    15     7    16 1
    16     8     9 1
    17     8    17 1
    18     8    18 1
    19     9    19 1
    20    10    20 1
@<TRIPOS>SUBSTRUCTURE
     1 XYZ         1 TEMP              0 ****  ****    0 ROOT
