@<TRIPOS>MOLECULE
XYZ
   20    20     1     0     0
SMALL
bcc


@<TRIPOS>ATOM
      1 C4         -0.1060   -0.1490    0.0150 c3        1 XYZ      0.138100
      2 O           1.1990   -0.6720    0.3170 os        1 XYZ     -0.431600
      3 C1          1.7130   -0.1450    1.5300 c3        1 XYZ      0.304900
      4 C2          0.6520    0.7860    2.1580 c3        1 XYZ      0.047100
      5 O2          0.2520    0.3460    3.4400 oh        1 XYZ     -0.589800
      6 C3         -0.5770    0.6820    1.2270 c3        1 XYZ      0.119100
      7 O3         -0.9950    1.9640    0.8030 oh        1 XYZ     -0.592800
      8 C5         -0.0320    0.6350   -1.2950 c3        1 XYZ      0.124400
      9 O5         -0.2250   -0.3060   -2.3400 oh        1 XYZ     -0.598800
     10 O1          2.8830    0.5390    1.1710 oh        1 XYZ     -0.610800
     11 H4         -0.7660   -1.0510   -0.1240 h1        1 XYZ      0.095700
     12 H1          2.0190   -0.9930    2.2000 h2        1 XYZ      0.103700
     13 H2          1.0360    1.8410    2.2080 h1        1 XYZ      0.071700
     14 HO2         1.0350    0.3780    4.0040 ho        1 XYZ      0.414000
     15 H3         -1.4170    0.1530    1.7560 h1        1 XYZ      0.076700
     16 HO3        -1.4010    2.3870    1.5700 ho        1 XYZ      0.416000
     17 H51         0.9670    1.1360   -1.3880 h1        1 XYZ      0.044200
     18 H52        -0.8490    1.4050   -1.3390 h1        1 XYZ      0.044200
     19 H5          0.0480    0.1280   -3.1560 ho        1 XYZ      0.404000
     20 HO1         2.7330    0.9740    0.3210 ho        1 XYZ      0.420000
@<TRIPOS>BOND
     1    1    2 1   
     2    1    6 1   
     3    1    8 1   
     4    1   11 1   
     5    2    3 1   
     6    3    4 1   
     7    3   10 1   
     8    3   12 1   
     9    4    5 1   
    10    4    6 1   
    11    4   13 1   
    12    5   14 1   
    13    6    7 1   
    14    6   15 1   
    15    7   16 1   
    16    8    9 1   
    17    8   17 1   
    18    8   18 1   
    19    9   19 1   
    20   10   20 1   
@<TRIPOS>SUBSTRUCTURE
     1 XYZ         1 TEMP              0 ****  ****    0 ROOT
