@<TRIPOS>MOLECULE
molecule
   43    45     1     0     0
SMALL
bcc


@<TRIPOS>ATOM
      1 Cl           0.0000     0.0000     0.0000 cl         1 XZ2      -0.086400
      2 CAA         -0.0880     5.8950     3.8350 c3         1 XZ2       0.219100
      3 CAB         -0.4080     3.3980     4.1520 c3         1 XZ2       0.219100
      4 OAC          5.9230     1.7330     3.8690 o          1 XZ2      -0.614500
      5 OAD          0.6520     3.5590     6.7590 o          1 XZ2      -0.631300
      6 OAE          0.7260     6.0510     6.5850 o          1 XZ2      -0.631300
      7 OAF          5.6270     6.8010     5.8140 oh         1 XZ2      -0.493100
      8 OAG          6.7030     4.5110     4.7320 oh         1 XZ2      -0.490100
      9 FAH          2.3830     0.0010    -1.7360 f          1 XZ2      -0.124900
     10 CAJ          3.9970     0.0000     0.0000 ca         1 XZ2      -0.161000
     11 CAK          4.2960     0.0000     1.3490 ca         1 XZ2      -0.076000
     12 CAL          3.4850     5.7760     5.8880 ca         1 XZ2      -0.041000
     13 CAM          1.9570    -0.0010     1.8700 ca         1 XZ2      -0.091000
     14 CAN          3.6040    -0.0010     3.7540 c3         1 XZ2       0.185300
     15 CAO          2.6080     2.1840     4.7700 c3         1 XZ2       0.123300
     16 CAP          4.8340     2.1160     4.2500 c          1 XZ2       0.723100
     17 CAQ          4.8340     5.7210     5.5810 ca         1 XZ2       0.054100
     18 CAR          2.6760     0.0000    -0.4170 ca         1 XZ2       0.148900
     19 CAS          5.3800     4.5640     5.0350 ca         1 XZ2       0.214100
     20 CAT          3.2760    -0.0000     2.2830 ca         1 XZ2      -0.130300
     21 CAU          1.6560     0.0000     0.5200 ca         1 XZ2      -0.020600
     22 CAV          3.2010     3.5260     5.1250 ca         1 XZ2       0.006700
     23 CAW          2.6710     4.6760     5.6590 ca         1 XZ2      -0.294500
     24 CAX          4.5580     3.4560     4.7970 ca         1 XZ2      -0.195600
     25 NAY          0.1210     4.6800     4.6250 n3         1 XZ2      -0.823500
     26 NAZ          3.7100     1.3790     4.2320 n          1 XZ2      -0.490800
     27 HAA          0.5810     5.8920     2.9840 h1         1 XZ2       0.047367
     28 HAAA        -1.1140     5.9280     3.4880 h1         1 XZ2       0.047367
     29 HAAB         0.1130     6.7640     4.4500 h1         1 XZ2       0.047367
     30 HAB          0.0340     3.1570     3.1920 h1         1 XZ2       0.047367
     31 HABA        -1.4840     3.4670     4.0470 h1         1 XZ2       0.047367
     32 HABB        -0.1650     2.6210     4.8660 h1         1 XZ2       0.047367
     33 HOAF         5.3600     7.5130     5.2560 ho         1 XZ2       0.419000
     34 HOAG         6.8370     4.8270     3.8540 ho         1 XZ2       0.434000
     35 HAJ          4.7960     0.0000    -0.7310 ha         1 XZ2       0.156000
     36 HAK          5.3290     0.0000     1.6750 ha         1 XZ2       0.161000
     37 HAL          3.0670     6.6740     6.3250 ha         1 XZ2       0.172000
     38 HAM          1.1600    -0.0010     2.6030 ha         1 XZ2       0.145000
     39 HAN          2.8190    -0.5130     4.2990 h1         1 XZ2       0.072700
     40 HANA         4.5460    -0.5120     3.9140 h1         1 XZ2       0.072700
     41 HAO          1.8370     2.3060     4.0190 h1         1 XZ2       0.078700
     42 HAOA         2.2020     1.7120     5.6560 h1         1 XZ2       0.078700
     43 SBA          0.9560     4.7530     6.0530 sy         1 XZ2       1.426200
@<TRIPOS>BOND
     1    21     1 1
     2    25     2 1
     3     2    27 1
     4     2    28 1
     5     2    29 1
     6     3    25 1
     7     3    30 1
     8     3    31 1
     9     3    32 1
    10    16     4 2
    11     5    43 2
    12    43     6 2
    13    17     7 1
    14     7    33 1
    15    19     8 1
    16     8    34 1
    17     9    18 1
    18    10    11 ar
    19    10    18 ar
    20    10    35 1
    21    11    20 ar
    22    11    36 1
    23    23    12 ar
    24    12    17 ar
    25    12    37 1
    26    20    13 ar
    27    21    13 ar
    28    13    38 1
    29    20    14 1
    30    14    26 1
    31    14    39 1
    32    14    40 1
    33    15    26 1
    34    15    22 1
    35    15    41 1
    36    15    42 1
    37    26    16 1
    38    16    24 1
    39    17    19 ar
    40    18    21 ar
    41    24    19 ar
    42    23    22 ar
    43    22    24 ar
    44    43    23 1
    45    25    43 1
@<TRIPOS>SUBSTRUCTURE
     1 XZ2         1 TEMP              0 ****  ****    0 ROOT
