@<TRIPOS>MOLECULE
XZ4
   50    52     1     0     0
SMALL
bcc


@<TRIPOS>ATOM
      1 F8           0.0000     0.0000     0.0000 f          1 XZ4      -0.124900
      2 C7           1.3510     0.0000     0.0000 ca         1 XZ4       0.139900
      3 C6           2.0440     0.0000     1.1990 ca         1 XZ4      -0.169000
      4 C5           3.4270    -0.0000     1.1980 ca         1 XZ4       0.140900
      5 F9           4.1050    -0.0010     2.3670 f          1 XZ4      -0.120900
      6 C4           4.1180    -0.0010    -0.0030 ca         1 XZ4      -0.145000
      7 C3           3.4260    -0.0000    -1.2000 ca         1 XZ4      -0.026000
      8 C2           2.0430    -0.0050    -1.1990 ca         1 XZ4      -0.166300
      9 C1           1.2890    -0.0050    -2.5040 c3         1 XZ4       0.113300
     10 N10          0.7410    -1.3410    -2.7510 ns         1 XZ4      -0.211900
     11 C11          0.0240    -1.5790    -3.8680 c          1 XZ4       0.664300
     12 O12         -0.2470    -0.6640    -4.6230 o          1 XZ4      -0.641100
     13 C13         -0.4300    -2.9400    -4.1710 cc         1 XZ4      -0.448400
     14 C14          0.3390    -3.7770    -5.0150 c          1 XZ4       0.645700
     15 O19          1.3810    -3.3520    -5.4830 o          1 XZ4      -0.687500
     16 N20         -0.0490    -5.0270    -5.3110 n          1 XZ4       0.130200
     17 O21          0.7630    -5.8180    -6.1610 oh         1 XZ4      -0.431100
     18 C16         -1.2160    -5.5620    -4.8120 ca         1 XZ4       0.444200
     19 N23         -1.5730    -6.8020    -5.1230 nb         1 XZ4      -0.691000
     20 C24         -2.6880    -7.3370    -4.6570 ca         1 XZ4       0.681600
     21 O27         -3.0100    -8.6060    -5.0030 os         1 XZ4      -0.425100
     22 C28         -2.1010    -9.2920    -5.8670 c3         1 XZ4       0.254700
     23 C25         -3.5400    -6.6240    -3.8150 ca         1 XZ4      -0.283300
     24 C26         -3.2210    -5.3400    -3.4620 ca         1 XZ4       0.019000
     25 C17         -2.0350    -4.7900    -3.9680 ca         1 XZ4      -0.307100
     26 C18         -1.6260    -3.4260    -3.6250 cd         1 XZ4       0.180800
     27 N32         -2.3940    -2.6460    -2.8010 nu         1 XZ4      -0.342000
     28 C34         -2.0450    -1.2380    -2.5900 c3         1 XZ4       0.006800
     29 C35         -3.1130    -0.5750    -1.7600 c          1 XZ4       0.706100
     30 O36         -4.0680    -1.2110    -1.3840 o          1 XZ4      -0.601000
     31 O37         -3.0040     0.7250    -1.4400 os         1 XZ4      -0.398900
     32 C38         -4.0700     1.2980    -0.6380 c3         1 XZ4       0.270700
     33 H1           1.5030     0.0060     2.1370 ha         1 XZ4       0.137000
     34 H2           5.2010     0.0010    -0.0040 ha         1 XZ4       0.127000
     35 H3           3.9670    -0.0030    -2.1380 ha         1 XZ4       0.122000
     36 H4           1.9610     0.2640    -3.3100 h1         1 XZ4       0.038200
     37 H5           0.4800     0.7130    -2.4540 h1         1 XZ4       0.038200
     38 H6           0.9450    -2.0900    -2.1200 hn         1 XZ4       0.182500
     39 H7           1.5670    -6.0320    -5.7170 ho         1 XZ4       0.407000
     40 H8          -2.4760   -10.2880    -6.0680 h1         1 XZ4       0.004033
     41 H9          -2.0070    -8.7470    -6.7990 h1         1 XZ4       0.004033
     42 H10         -1.1310    -9.3610    -5.3900 h1         1 XZ4       0.004033
     43 H11         -4.4500    -7.0810    -3.4440 ha         1 XZ4       0.132000
     44 H12         -3.8670    -4.7660    -2.8090 ha         1 XZ4       0.115000
     45 H13         -3.1730    -3.0460    -2.3160 hn         1 XZ4       0.319800
     46 H14         -1.0950    -1.1740    -2.0740 h1         1 XZ4       0.091200
     47 H15         -1.9690    -0.7370    -3.5480 h1         1 XZ4       0.091200
     48 H16         -5.0110     1.2020    -1.1660 h1         1 XZ4       0.003367
     49 H17         -4.1320     0.7740     0.3080 h1         1 XZ4       0.003367
     50 H18         -3.8630     2.3460    -0.4570 h1         1 XZ4       0.003367
@<TRIPOS>BOND
     1     1     2 1   
     2     2     3 ar  
     3     2     8 ar  
     4     3     4 ar  
     5     3    33 1   
     6     4     5 1   
     7     4     6 ar  
     8     6     7 ar  
     9     6    34 1   
    10     7     8 ar  
    11     7    35 1   
    12     8     9 1   
    13     9    10 1   
    14     9    36 1   
    15     9    37 1   
    16    10    11 1   
    17    10    38 1   
    18    11    12 2   
    19    11    13 1   
    20    13    14 1   
    21    13    26 2   
    22    14    15 2   
    23    14    16 1   
    24    16    17 1   
    25    16    18 1   
    26    17    39 1   
    27    18    19 ar  
    28    18    25 ar  
    29    19    20 ar  
    30    20    21 1   
    31    20    23 ar  
    32    21    22 1   
    33    22    40 1   
    34    22    41 1   
    35    22    42 1   
    36    23    24 ar  
    37    23    43 1   
    38    24    25 ar  
    39    24    44 1   
    40    25    26 1   
    41    26    27 1   
    42    27    28 1   
    43    27    45 1   
    44    28    29 1   
    45    28    46 1   
    46    28    47 1   
    47    29    30 2   
    48    29    31 1   
    49    31    32 1   
    50    32    48 1   
    51    32    49 1   
    52    32    50 1   
@<TRIPOS>SUBSTRUCTURE
     1 XZ4         1 TEMP              0 ****  ****    0 ROOT
