@<TRIPOS>MOLECULE
molecule
   50    52     1     0     0
SMALL
bcc


@<TRIPOS>ATOM
      1 F8           0.0000     0.0000     0.0000 f          1 XZ4      -0.132900
      2 C7           1.3510     0.0000     0.0000 ca         1 XZ4       0.166900
      3 C6           2.0440     0.0000     1.1990 ca         1 XZ4      -0.213000
      4 C5           3.4270    -0.0000     1.1980 ca         1 XZ4       0.167900
      5 F9           4.1050    -0.0010     2.3670 f          1 XZ4      -0.130900
      6 C4           4.1180    -0.0010    -0.0030 ca         1 XZ4      -0.184000
      7 C3           3.4260    -0.0000    -1.2000 ca         1 XZ4      -0.058000
      8 C2           2.0430    -0.0050    -1.1990 ca         1 XZ4      -0.170300
      9 C1           1.2890    -0.0050    -2.5040 c3         1 XZ4       0.161300
     10 N10          0.7410    -1.3410    -2.7510 ns         1 XZ4      -0.589900
     11 C11          0.0240    -1.5790    -3.8680 c          1 XZ4       0.720300
     12 O12         -0.2470    -0.6640    -4.6230 o          1 XZ4      -0.597100
     13 C13         -0.4300    -2.9400    -4.1710 cc         1 XZ4      -0.416400
     14 C14          0.3390    -3.7770    -5.0150 c          1 XZ4       0.743700
     15 O19          1.3810    -3.3520    -5.4830 o          1 XZ4      -0.626500
     16 N20         -0.0490    -5.0270    -5.3110 n          1 XZ4      -0.298800
     17 O21          0.7630    -5.8180    -6.1610 oh         1 XZ4      -0.340100
     18 C16         -1.2160    -5.5620    -4.8120 ca         1 XZ4       0.650200
     19 N23         -1.5730    -6.8020    -5.1230 nb         1 XZ4      -0.803000
     20 C24         -2.6880    -7.3370    -4.6570 ca         1 XZ4       0.722600
     21 O27         -3.0100    -8.6060    -5.0030 os         1 XZ4      -0.431100
     22 C28         -2.1010    -9.2920    -5.8670 c3         1 XZ4       0.133700
     23 C25         -3.5400    -6.6240    -3.8150 ca         1 XZ4      -0.303300
     24 C26         -3.2210    -5.3400    -3.4620 ca         1 XZ4      -0.008000
     25 C17         -2.0350    -4.7900    -3.9680 ca         1 XZ4      -0.310100
     26 C18         -1.6260    -3.4260    -3.6250 cd         1 XZ4       0.324800
     27 N32         -2.3940    -2.6460    -2.8010 nu         1 XZ4      -0.773000
     28 C34         -2.0450    -1.2380    -2.5900 c3         1 XZ4       0.132800
     29 C35         -3.1130    -0.5750    -1.7600 c          1 XZ4       0.633100
     30 O36         -4.0680    -1.2110    -1.3840 o          1 XZ4      -0.563000
     31 O37         -3.0040     0.7250    -1.4400 os         1 XZ4      -0.414900
     32 C38         -4.0700     1.2980    -0.6380 c3         1 XZ4       0.140700
     33 H1           1.5030     0.0060     2.1370 ha         1 XZ4       0.162000
     34 H2           5.2010     0.0010    -0.0040 ha         1 XZ4       0.154000
     35 H3           3.9670    -0.0030    -2.1380 ha         1 XZ4       0.154000
     36 H4           1.9610     0.2640    -3.3100 h1         1 XZ4       0.068200
     37 H5           0.4800     0.7130    -2.4540 h1         1 XZ4       0.068200
     38 H6           0.9450    -2.0900    -2.1200 hn         1 XZ4       0.321500
     39 H7           1.5670    -6.0320    -5.7170 ho         1 XZ4       0.411000
     40 H8          -2.4760   -10.2880    -6.0680 h1         1 XZ4       0.053033
     41 H9          -2.0070    -8.7470    -6.7990 h1         1 XZ4       0.053033
     42 H10         -1.1310    -9.3610    -5.3900 h1         1 XZ4       0.053033
     43 H11         -4.4500    -7.0810    -3.4440 ha         1 XZ4       0.160000
     44 H12         -3.8670    -4.7660    -2.8090 ha         1 XZ4       0.150000
     45 H13         -3.1730    -3.0460    -2.3160 hn         1 XZ4       0.465800
     46 H14         -1.0950    -1.1740    -2.0740 h1         1 XZ4       0.117200
     47 H15         -1.9690    -0.7370    -3.5480 h1         1 XZ4       0.117200
     48 H16         -5.0110     1.2020    -1.1660 h1         1 XZ4       0.052700
     49 H17         -4.1320     0.7740     0.3080 h1         1 XZ4       0.052700
     50 H18         -3.8630     2.3460    -0.4570 h1         1 XZ4       0.052700
@<TRIPOS>BOND
     1    30    29 2
     2    32    31 1
     3    31    29 1
     4    29    28 1
     5     7     6 ar
     6     7     8 ar
     7    12    11 2
     8     6     4 ar
     9    28    27 1
    10    27    26 1
    11     9     8 1
    12     9    10 1
    13     8     2 ar
    14    11    10 1
    15    11    13 1
    16     4     5 1
    17     4     3 ar
    18    26    13 2
    19    26    25 1
    20    13    14 1
    21     2     3 ar
    22     2     1 1
    23    24    25 ar
    24    24    23 ar
    25    25    18 ar
    26    23    20 ar
    27    14    15 2
    28    14    16 1
    29    18    16 1
    30    18    19 ar
    31    16    17 1
    32    20    19 ar
    33    20    21 1
    34    22    21 1
    35     3    33 1
    36     6    34 1
    37     7    35 1
    38     9    36 1
    39     9    37 1
    40    10    38 1
    41    17    39 1
    42    22    40 1
    43    22    41 1
    44    22    42 1
    45    23    43 1
    46    24    44 1
    47    27    45 1
    48    28    46 1
    49    28    47 1
    50    32    48 1
    51    32    49 1
    52    32    50 1
@<TRIPOS>SUBSTRUCTURE
     1 XZ4         1 TEMP              0 ****  ****    0 ROOT
