@<TRIPOS>MOLECULE
molecule
   32    34     1     0     0
SMALL
bcc


@<TRIPOS>ATOM
      1 C01          0.0000     0.0000     0.0000 c3         1 XZ8      -0.171100
      2 C02          1.5080     0.0000     0.0000 c          1 XZ8       0.669100
      3 O03          2.1140     0.0000     1.0490 o          1 XZ8      -0.563100
      4 N04          2.1810     0.0000    -1.1670 n          1 XZ8      -0.225200
      5 C05          1.6000     0.0050    -2.4160 cc         1 XZ8      -0.084400
      6 C06          2.5630     0.0040    -3.3650 cd         1 XZ8      -0.008200
      7 C07          2.3550     0.0090    -4.8330 cd         1 XZ8      -0.259200
      8 C08          1.9660     1.0680    -5.5920 cc         1 XZ8       0.145800
      9 C09          1.6680     2.4550    -5.0800 c3         1 XZ8      -0.035900
     10 N10          1.8890     0.6680    -6.8930 na         1 XZ8      -0.554000
     11 N11          2.2360    -0.6850    -6.9840 ns         1 XZ8      -0.409300
     12 C12          2.5350    -1.1280    -5.7450 c          1 XZ8       0.708700
     13 O13          2.8800    -2.2550    -5.4410 o          1 XZ8      -0.628500
     14 C14          3.8580    -0.0030    -2.6620 ca         1 XZ8      -0.083800
     15 C15          5.1860    -0.0100    -3.0870 ca         1 XZ8      -0.078000
     16 C16          6.2000    -0.0170    -2.1550 ca         1 XZ8      -0.148000
     17 C17          5.9060    -0.0200    -0.7990 ca         1 XZ8      -0.115000
     18 C18          4.5970    -0.0140    -0.3660 ca         1 XZ8      -0.118000
     19 C19          3.5590     0.0010    -1.2910 ca         1 XZ8       0.010600
     20 H1          -0.3610     0.8710    -0.5340 hc         1 XZ8       0.067367
     21 H2          -0.3610    -0.8980    -0.4870 hc         1 XZ8       0.067367
     22 H3          -0.3610     0.0270     1.0210 hc         1 XZ8       0.067367
     23 H4           0.5340     0.0090    -2.6080 h4         1 XZ8       0.171000
     24 H6           2.5780     2.9010    -4.6970 hc         1 XZ8       0.058367
     25 H7           1.2800     3.0630    -5.8880 hc         1 XZ8       0.058367
     26 H8           0.9330     2.3970    -4.2870 hc         1 XZ8       0.058367
     27 H9           2.2630    -1.2280    -7.8240 hn         1 XZ8       0.365500
     28 H10          5.4190    -0.0080    -4.1450 ha         1 XZ8       0.136000
     29 H11          7.2320    -0.0220    -2.4820 ha         1 XZ8       0.129000
     30 H12          6.7110    -0.0250    -0.0750 ha         1 XZ8       0.132000
     31 H13          4.3770    -0.0160     0.6950 ha         1 XZ8       0.157000
     32 H5           1.6230     1.2490    -7.6630 hn         1 XZ8       0.479800
@<TRIPOS>BOND
     1    11    12 1
     2    11    10 1
     3    13    12 2
     4    12     7 1
     5     1     2 1
     6    10     8 1
     7     5     6 2
     8     5     4 1
     9     7     8 2
    10     7     6 1
    11     8     9 1
    12     2     4 1
    13     2     3 2
    14     6    14 1
    15     4    19 1
    16    14    19 ar
    17    14    15 ar
    18    19    18 ar
    19    15    16 ar
    20    18    17 ar
    21    16    17 ar
    22     1    20 1
    23     1    21 1
    24     1    22 1
    25     5    23 1
    26     9    24 1
    27     9    25 1
    28     9    26 1
    29    11    27 1
    30    15    28 1
    31    16    29 1
    32    17    30 1
    33    18    31 1
    34    10    32 1
@<TRIPOS>SUBSTRUCTURE
     1 XZ8         1 TEMP              0 ****  ****    0 ROOT
