@<TRIPOS>MOLECULE
molecule
   53    56     1     0     0
SMALL
bcc


@<TRIPOS>ATOM
      1 C01          0.0000     0.0000     0.0000 c3         1 XZB       0.079300
      2 N05          1.4650     0.0000     0.0000 n          1 XZB      -0.322000
      3 C06          2.1220     0.0000     1.1910 cc         1 XZB       0.067600
      4 C08          3.4770     0.0000     1.2520 cd         1 XZB      -0.111400
      5 C09          4.1640    -0.0000     2.5670 ca         1 XZB      -0.073800
      6 C10          4.9400    -1.0930     2.9500 ca         1 XZB      -0.094000
      7 C12          5.5760    -1.0880     4.1750 ca         1 XZB      -0.126000
      8 C14          5.4450    -0.0010     5.0210 ca         1 XZB      -0.066000
      9 C16          4.6760     1.0850     4.6460 ca         1 XZB      -0.174300
     10 C17          4.0400     1.0940     3.4210 ca         1 XZB      -0.067000
     11 C19          4.5380     2.2650     5.5730 c3         1 XZB       0.676200
     12 F20          5.2720     2.0290     6.7410 f          1 XZB      -0.217633
     13 F21          5.0250     3.4140     4.9410 f          1 XZB      -0.217633
     14 F22          3.1900     2.4470     5.8980 f          1 XZB      -0.217633
     15 C23          4.2610     0.0000     0.0120 cd         1 XZB       0.097100
     16 S24          5.9960     0.0010    -0.2700 ss         1 XZB       0.077200
     17 C25          5.7600     0.0010    -2.0100 cd         1 XZB      -0.217000
     18 C26          4.4550     0.0000    -2.3070 cc         1 XZB      -0.042000
     19 C28          3.5870     0.0010    -1.2110 cc         1 XZB      -0.213600
     20 C29          2.1130    -0.0050    -1.1750 c          1 XZB       0.720100
     21 O30          1.4800    -0.0100    -2.2170 o          1 XZB      -0.619500
     22 C31          6.8460     0.0020    -3.0030 cf         1 XZB       0.556800
     23 N32          6.5490     0.0020    -4.3510 nz         1 XZB      -0.790600
     24 N34          8.0910     0.0020    -2.6100 n2         1 XZB      -0.513900
     25 C36          9.1700     0.1420    -3.5910 c3         1 XZB       0.085500
     26 C38         10.0820     1.2920    -3.1760 c3         1 XZB      -0.055400
     27 C41         11.0590     1.6200    -4.3080 c3         1 XZB      -0.213600
     28 S44         12.1370     0.1870    -4.5930 s6         1 XZB       1.105000
     29 O45         12.8550     0.3900    -5.8020 o          1 XZB      -0.577800
     30 O46         12.8540    -0.0890    -3.3970 o          1 XZB      -0.577800
     31 C47         10.9150    -1.1320    -4.8570 c3         1 XZB      -0.213600
     32 C50          9.9540    -1.1660    -3.6670 c3         1 XZB      -0.055400
     33 H011        -0.3610     0.9790    -0.2910 h1         1 XZB       0.069700
     34 H012        -0.3610    -0.2380     0.9930 h1         1 XZB       0.069700
     35 H013        -0.3610    -0.7410    -0.7030 h1         1 XZB       0.069700
     36 H06          1.5500    -0.0010     2.1110 h4         1 XZB       0.184000
     37 H10          5.0430    -1.9450     2.2890 ha         1 XZB       0.139000
     38 H17          3.4380     1.9460     3.1280 ha         1 XZB       0.150000
     39 H12          6.1800    -1.9370     4.4740 ha         1 XZB       0.151000
     40 H14          5.9440    -0.0030     5.9820 ha         1 XZB       0.163000
     41 H26          4.0960     0.0000    -3.3290 ha         1 XZB       0.138000
     42 H321         5.5800    -0.2100    -4.4790 hn         1 XZB       0.467467
     43 H322         7.1060    -0.6880    -4.8160 hn         1 XZB       0.467467
     44 H36          8.7470     0.3590    -4.5650 h1         1 XZB      -0.003300
     45 H381         9.4800     2.1660    -2.9590 hc         1 XZB       0.083700
     46 H382        10.6410     1.0060    -2.2930 hc         1 XZB       0.083700
     47 H501         9.2620    -1.9900    -3.7890 hc         1 XZB       0.083700
     48 H502        10.5200    -1.2970    -2.7530 hc         1 XZB       0.083700
     49 H411        10.5040     1.8400    -5.2120 h1         1 XZB       0.111200
     50 H412        11.6620     2.4750    -4.0290 h1         1 XZB       0.111200
     51 H471        11.4230    -2.0850    -4.9380 h1         1 XZB       0.111200
     52 H472        10.3590    -0.9330    -5.7650 h1         1 XZB       0.111200
     53 H323         6.7450     0.9050    -4.7360 hn         1 XZB       0.467467
@<TRIPOS>BOND
     1     1     2 1
     2     2     3 1
     3     2    20 1
     4     3     4 2
     5     4     5 1
     6     4    15 1
     7     5     6 ar
     8     5    10 ar
     9     6     7 ar
    10     7     8 ar
    11     8     9 ar
    12     9    10 ar
    13     9    11 1
    14    11    12 1
    15    11    13 1
    16    11    14 1
    17    15    16 1
    18    15    19 2
    19    16    17 1
    20    17    18 2
    21    17    22 1
    22    18    19 1
    23    19    20 1
    24    20    21 2
    25    22    23 1
    26    22    24 2
    27    24    25 1
    28    25    26 1
    29    25    32 1
    30    26    27 1
    31    27    28 1
    32    28    29 2
    33    28    30 2
    34    28    31 1
    35    31    32 1
    36     1    33 1
    37     1    34 1
    38     1    35 1
    39     3    36 1
    40     6    37 1
    41    10    38 1
    42     7    39 1
    43     8    40 1
    44    18    41 1
    45    23    42 1
    46    23    43 1
    47    25    44 1
    48    26    45 1
    49    26    46 1
    50    32    47 1
    51    32    48 1
    52    27    49 1
    53    27    50 1
    54    31    51 1
    55    31    52 1
    56    53    23 1
@<TRIPOS>SUBSTRUCTURE
     1 XZB         1 TEMP              0 ****  ****    0 ROOT
