@<TRIPOS>MOLECULE
XZB
   53    56     1     0     0
SMALL
bcc


@<TRIPOS>ATOM
      1 C01          0.0000     0.0000     0.0000 c3         1 XZB       0.045300
      2 N05          1.4650     0.0000     0.0000 n          1 XZB       0.118000
      3 C06          2.1220     0.0000     1.1910 cc         1 XZB      -0.074400
      4 C08          3.4770     0.0000     1.2520 cd         1 XZB      -0.085400
      5 C09          4.1640    -0.0000     2.5670 ca         1 XZB      -0.073800
      6 C10          4.9400    -1.0930     2.9500 ca         1 XZB      -0.058000
      7 C12          5.5760    -1.0880     4.1750 ca         1 XZB      -0.096000
      8 C14          5.4450    -0.0010     5.0210 ca         1 XZB      -0.027000
      9 C16          4.6760     1.0850     4.6460 ca         1 XZB      -0.201300
     10 C17          4.0400     1.0940     3.4210 ca         1 XZB      -0.027000
     11 C19          4.5380     2.2650     5.5730 c3         1 XZB       0.642200
     12 F20          5.2720     2.0290     6.7410 f          1 XZB      -0.203300
     13 F21          5.0250     3.4140     4.9410 f          1 XZB      -0.203300
     14 F22          3.1900     2.4470     5.8980 f          1 XZB      -0.203300
     15 C23          4.2610     0.0000     0.0120 cd         1 XZB       0.178100
     16 S24          5.9960     0.0010    -0.2700 ss         1 XZB      -0.110800
     17 C25          5.7600     0.0010    -2.0100 cd         1 XZB      -0.159000
     18 C26          4.4550     0.0000    -2.3070 cc         1 XZB       0.002000
     19 C28          3.5870     0.0010    -1.2110 cc         1 XZB      -0.229600
     20 C29          2.1130    -0.0050    -1.1750 c          1 XZB       0.626100
     21 O30          1.4800    -0.0100    -2.2170 o          1 XZB      -0.665500
     22 C31          6.8460     0.0020    -3.0030 cf         1 XZB       0.279800
     23 N32          6.5490     0.0020    -4.3510 nz         1 XZB       0.124400
     24 N34          8.0910     0.0020    -2.6100 n2         1 XZB      -0.366900
     25 C36          9.1700     0.1420    -3.5910 c3         1 XZB       0.074500
     26 C38         10.0820     1.2920    -3.1760 c3         1 XZB       0.008600
     27 C41         11.0590     1.6200    -4.3080 c3         1 XZB      -0.020100
     28 S44         12.1370     0.1870    -4.5930 s6         1 XZB       0.805000
     29 O45         12.8550     0.3900    -5.8020 o          1 XZB      -0.551800
     30 O46         12.8540    -0.0890    -3.3970 o          1 XZB      -0.551800
     31 C47         10.9150    -1.1320    -4.8570 c3         1 XZB      -0.020100
     32 C50          9.9540    -1.1660    -3.6670 c3         1 XZB       0.008600
     33 H011        -0.3610    -0.7600    -0.6820 h1         1 XZB       0.036033
     34 H012        -0.3610     0.9710    -0.3170 h1         1 XZB       0.036033
     35 H013        -0.3610    -0.2110     0.9990 h1         1 XZB       0.036033
     36 H06          1.5500    -0.0010     2.1110 h4         1 XZB       0.151000
     37 H10          5.0430    -1.9450     2.2890 ha         1 XZB       0.110000
     38 H17          3.4380     1.9460     3.1280 ha         1 XZB       0.119000
     39 H12          6.1800    -1.9370     4.4740 ha         1 XZB       0.120000
     40 H14          5.9440    -0.0030     5.9820 ha         1 XZB       0.131000
     41 H26          4.0960     0.0000    -3.3290 ha         1 XZB       0.110000
     42 H321         6.7490     0.9040    -4.7370 hn         1 XZB       0.230467
     43 H322         5.5790    -0.2080    -4.4790 hn         1 XZB       0.230467
     44 H36          8.7470     0.3590    -4.5650 h1         1 XZB      -0.026300
     45 H381        10.6410     1.0060    -2.2930 hc         1 XZB       0.047450
     46 H382         9.4800     2.1660    -2.9590 hc         1 XZB       0.047450
     47 H501         9.2620    -1.9900    -3.7890 hc         1 XZB       0.047450
     48 H502        10.5200    -1.2970    -2.7530 hc         1 XZB       0.047450
     49 H411        11.6620     2.4750    -4.0290 h1         1 XZB       0.077700
     50 H412        10.5040     1.8400    -5.2120 h1         1 XZB       0.077700
     51 H471        11.4230    -2.0850    -4.9380 h1         1 XZB       0.077700
     52 H472        10.3590    -0.9330    -5.7650 h1         1 XZB       0.077700
     53 H323         7.1060    -0.6880    -4.8160 hn         1 XZB       0.230467
@<TRIPOS>BOND
     1     1     2 1   
     2     1    33 1   
     3     1    34 1   
     4     1    35 1   
     5     2     3 1   
     6     2    20 1   
     7     3     4 2   
     8     3    36 1   
     9     4     5 1   
    10     4    15 1   
    11     5     6 ar  
    12     5    10 ar  
    13     6     7 ar  
    14     6    37 1   
    15     7     8 ar  
    16     7    39 1   
    17     8     9 ar  
    18     8    40 1   
    19     9    10 ar  
    20     9    11 1   
    21    10    38 1   
    22    11    12 1   
    23    11    13 1   
    24    11    14 1   
    25    15    16 1   
    26    15    19 2   
    27    16    17 1   
    28    17    18 2   
    29    17    22 1   
    30    18    19 1   
    31    18    41 1   
    32    19    20 1   
    33    20    21 2   
    34    22    23 1   
    35    22    24 2   
    36    23    42 1   
    37    23    43 1   
    38    23    53 1   
    39    24    25 1   
    40    25    26 1   
    41    25    32 1   
    42    25    44 1   
    43    26    27 1   
    44    26    45 1   
    45    26    46 1   
    46    27    28 1   
    47    27    49 1   
    48    27    50 1   
    49    28    29 2   
    50    28    30 2   
    51    28    31 1   
    52    31    32 1   
    53    31    51 1   
    54    31    52 1   
    55    32    47 1   
    56    32    48 1   
@<TRIPOS>SUBSTRUCTURE
     1 XZB         1 TEMP              0 ****  ****    0 ROOT
