@<TRIPOS>MOLECULE
XZN
   66    69     1     0     0
SMALL
bcc


@<TRIPOS>ATOM
      1 CAA         0.2260   -0.1480   -0.4640 c3        1 XZN      0.100700
      2 CAC         7.6230   -0.2260   -1.3830 c3        1 XZN      0.175800
      3 NAD         0.4390    0.2560    8.1550 n1        1 XZN     -0.272800
      4 CL1        -0.7850   -4.7730    3.1920 cl        1 XZN      0.000100
      5 CL2        -4.1840   -2.5550    6.7680 cl        1 XZN      0.000100
      6 CAH         3.1390    0.0610    5.9310 ca        1 XZN      0.449200
      7 CAK         4.0820   -0.0760    2.4390 ca        1 XZN     -0.252300
      8 CAL         1.2630   -0.0670    2.1690 ca        1 XZN     -0.269000
      9 CAM         6.0960   -0.1450   -1.3640 c3        1 XZN     -0.090400
     10 CAN         5.6250   -0.1290    0.0790 c3        1 XZN      0.121400
     11 CAO        10.5540   -0.4420   -6.2430 c3        1 XZN      0.156100
     12 CAQ         9.6330    0.2270   -2.6260 c3        1 XZN      0.166800
     13 CAP         7.8330   -1.0170   -3.6660 c3        1 XZN      0.166800
     14 CAS        10.2850    0.4250   -4.0080 c3        1 XZN      0.168300
     15 CAR         8.4960   -0.8180   -5.0410 c3        1 XZN      0.168300
     16 NAT         3.8830    0.0030    4.8400 nb        1 XZN     -0.601000
     17 OAV         1.6360   -0.1630   -0.2420 os        1 XZN     -0.271900
     18 CAX        -2.4500   -3.5770    4.9580 ca        1 XZN      0.167100
     19 CAY        -1.3300   -3.4630    4.1080 ca        1 XZN      0.014900
     20 CAZ        -2.1800   -1.2480    5.6200 ca        1 XZN     -0.098500
     21 CBA         1.7100    0.1010    5.9140 ca        1 XZN     -0.088300
     22 CBB        -1.0820   -1.1470    4.7510 ca        1 XZN     -0.050400
     23 CBC         2.0670   -0.1100    1.0510 ca        1 XZN      0.192100
     24 CBD         3.5130   -0.1100    1.1890 ca        1 XZN      0.170100
     25 CBE         1.0680    0.0660    4.6720 ca        1 XZN      0.025600
     26 CBF         3.2640   -0.0270    3.6150 ca        1 XZN      0.448600
     27 CBG         1.8320   -0.0120    3.4710 ca        1 XZN     -0.118300
     28 NBH         8.1930    0.0120   -2.7000 n3        1 XZN     -0.728600
     29 CAJ        -0.6470   -2.2490    4.0010 ca        1 XZN     -0.098500
     30 NBI         9.9360   -0.6270   -4.9500 n3        1 XZN     -0.732600
     31 C01        -2.8590   -5.6890    5.9490 c3        1 XZN      0.113700
     32 CAI        -2.8620   -2.4630    5.7220 ca        1 XZN      0.014900
     33 HAA1       -0.2240    0.7930   -0.0660 h1        1 XZN      0.060700
     34 HAA2        0.1500   -0.1830   -1.5820 h1        1 XZN      0.060700
     35 HAA3       -0.2520   -1.0470   -0.0060 h1        1 XZN      0.060700
     36 H011       -3.5910   -6.5160    5.7630 h1        1 XZN      0.062700
     37 H012       -1.8100   -6.0370    5.7970 h1        1 XZN      0.062700
     38 H013       -2.9960   -5.2520    6.9660 h1        1 XZN      0.062700
     39 HAC1        8.0310    0.5670   -0.6910 h1        1 XZN      0.032700
     40 HAC2        7.9300   -1.2300   -0.9640 h1        1 XZN      0.032700
     41 HAM1        5.7390    0.7810   -1.8860 hc        1 XZN      0.072700
     42 HAM2        5.6470   -1.0250   -1.8930 hc        1 XZN      0.072700
     43 HAH         3.6760    0.0820    6.9020 h4        1 XZN      0.069100
     44 HAK         5.1780   -0.0830    2.5660 ha        1 XZN      0.187000
     45 HAL         0.1730   -0.0910    2.0300 ha        1 XZN      0.133000
     46 HAN1        5.9740   -1.0360    0.6380 h1        1 XZN      0.052700
     47 HAN2        5.9510    0.8030    0.6100 h1        1 XZN      0.052700
     48 HAO1       11.6660   -0.3860   -6.1060 h1        1 XZN      0.036367
     49 HAO2       10.3140   -1.3270   -6.8880 h1        1 XZN      0.036367
     50 HAO3       10.2120    0.4900   -6.7720 h1        1 XZN      0.036367
     51 HAP1        6.7180   -0.9700   -3.8170 h1        1 XZN      0.037200
     52 HAP2        8.0890   -2.0500   -3.2870 h1        1 XZN      0.037200
     53 HAR1        8.3100   -1.7470   -5.6490 h1        1 XZN      0.040450
     54 HAR2        7.9910    0.0460   -5.5640 h1        1 XZN      0.040450
     55 HAQ1       10.1530   -0.6260   -2.1000 h1        1 XZN      0.037200
     56 HAQ2        9.8100    1.1650   -2.0280 h1        1 XZN      0.037200
     57 HAS1       10.0040    1.4470   -4.3970 h1        1 XZN      0.040450
     58 HAS2       11.4020    0.4040   -3.8650 h1        1 XZN      0.040450
     59 HAU        -0.6760    0.5730    3.7230 hn        1 XZN      0.465800
     60 HAJ         0.2310   -2.1720    3.3330 ha        1 XZN      0.176000
     61 HAZ        -2.5200   -0.3900    6.2270 ha        1 XZN      0.176000
     62 NAU        -0.3990    0.1500    4.6210 n4        1 XZN     -0.500800
     63 OAW         4.1830   -0.1510    0.0030 os        1 XZN     -0.286900
     64 HAU2       -0.7160    0.7670    5.3840 hn        1 XZN      0.465800
     65 CAG         1.0000    0.1870    7.1370 cg        1 XZN      0.179800
     66 O02        -3.2100   -4.7260    4.9430 os        1 XZN     -0.318900
@<TRIPOS>BOND
     1    1   17 1   
     2    1   33 1   
     3    1   34 1   
     4    1   35 1   
     5    2    9 1   
     6    2   28 1   
     7    2   39 1   
     8    2   40 1   
     9    3   65 3   
    10    4   19 1   
    11    5   32 1   
    12    6   16 ar  
    13    6   21 ar  
    14    6   43 1   
    15    7   24 ar  
    16    7   26 ar  
    17    7   44 1   
    18    8   23 ar  
    19    8   27 ar  
    20    8   45 1   
    21    9   10 1   
    22    9   41 1   
    23    9   42 1   
    24   10   46 1   
    25   10   47 1   
    26   10   63 1   
    27   11   30 1   
    28   11   48 1   
    29   11   49 1   
    30   11   50 1   
    31   12   14 1   
    32   12   28 1   
    33   12   55 1   
    34   12   56 1   
    35   13   15 1   
    36   13   28 1   
    37   13   51 1   
    38   13   52 1   
    39   14   30 1   
    40   14   57 1   
    41   14   58 1   
    42   15   30 1   
    43   15   53 1   
    44   15   54 1   
    45   16   26 ar  
    46   17   23 1   
    47   18   19 ar  
    48   18   32 ar  
    49   18   66 1   
    50   19   29 ar  
    51   20   22 ar  
    52   20   32 ar  
    53   20   61 1   
    54   21   25 ar  
    55   21   65 1   
    56   22   29 ar  
    57   22   62 1   
    58   23   24 ar  
    59   24   63 1   
    60   25   27 ar  
    61   25   62 1   
    62   26   27 ar  
    63   29   60 1   
    64   31   36 1   
    65   31   37 1   
    66   31   38 1   
    67   31   66 1   
    68   59   62 1   
    69   62   64 1   
@<TRIPOS>SUBSTRUCTURE
     1 XZN         1 TEMP              0 ****  ****    0 ROOT
