@<TRIPOS>MOLECULE
molecule
   65    68     1     0     0
SMALL
bcc


@<TRIPOS>ATOM
      1 CAA          0.0000     0.0000     0.0000 c3         1 XZN       0.128700
      2 CAC          7.7620     0.0060    -0.9830 c3         1 XZN       0.093800
      3 NAD          0.6240    -0.0250     8.2540 n1         1 XZN      -0.314800
      4 Cl1         -0.0260    -5.0790     4.1260 cl         1 XZN      -0.080900
      5 Cl2         -4.7000    -2.4440     4.8230 cl         1 XZN      -0.080900
      6 CAH          3.2870    -0.0020     5.9960 ca         1 XZN       0.470200
      7 CAK          4.0940     0.0010     2.4920 ca         1 XZN      -0.252300
      8 CAL          1.2970    -0.0020     2.3520 ca         1 XZN      -0.215000
      9 CAM          6.2390     0.0050    -1.1260 c3         1 XZN      -0.133400
     10 CAN          5.5970     0.0040     0.2630 c3         1 XZN       0.135400
     11 CAO         10.6670    -0.6790    -6.0310 c3         1 XZN       0.216100
     12 CAQ          9.6330     0.4240    -2.9340 c3         1 XZN       0.106300
     13 CAP          7.8780    -1.0990    -3.6100 c3         1 XZN       0.106300
     14 CAS         10.1180     0.5100    -4.3830 c3         1 XZN       0.176300
     15 CAR          8.3640    -1.0150    -5.0600 c3         1 XZN       0.176300
     16 NAT          3.9580     0.0000     4.8730 nb         1 XZN      -0.666000
     17 OAV          1.4290     0.0000     0.0000 os         1 XZN      -0.299900
     18 CAX         -2.2760    -3.6120     4.4920 ca         1 XZN       0.087100
     19 CAY         -0.8920    -3.5970     4.3820 ca         1 XZN       0.039900
     20 CAZ         -2.2820    -1.2300     4.7860 ca         1 XZN      -0.156000
     21 CBA          1.8830    -0.0040     6.0160 ca         1 XZN      -0.232300
     22 CBB         -0.8970    -1.2160     4.6820 ca         1 XZN       0.125600
     23 CBC          2.0470    -0.0010     1.2110 ca         1 XZN       0.182100
     24 CBD          3.4470     0.0000     1.2770 ca         1 XZN       0.150100
     25 CBE          1.1790    -0.0030     4.8020 ca         1 XZN       0.151600
     26 CBF          3.3450    -0.0000     3.6790 ca         1 XZN       0.433600
     27 CBG          1.9310    -0.0030     3.6040 ca         1 XZN      -0.161300
     28 NBH          8.1870     0.1590    -2.9190 n3         1 XZN      -0.621600
     29 CAJ         -0.2040    -2.4010     4.4760 ca         1 XZN      -0.156000
     30 NBI          9.8090    -0.7500    -5.0750 n3         1 XZN      -0.772600
     31 C01         -3.1730    -5.5080     5.6130 c3         1 XZN       0.105700
     32 CAI         -2.9690    -2.4260     4.6920 ca         1 XZN       0.039900
     33 HAA1        -0.3610     0.9840     0.2730 h1         1 XZN       0.051367
     34 HAA2        -0.3610    -0.7290     0.7160 h1         1 XZN       0.051367
     35 HAA3        -0.3610    -0.2560    -0.9890 h1         1 XZN       0.051367
     36 H011        -4.1580    -5.9600     5.5910 h1         1 XZN       0.052033
     37 H012        -2.4430    -6.2150     5.2380 h1         1 XZN       0.052033
     38 H013        -2.9230    -5.2360     6.6310 h1         1 XZN       0.052033
     39 HAC1         8.0330    -0.3660    -0.0020 h1         1 XZN       0.060700
     40 HAC2         8.1350     1.0160    -1.1010 h1         1 XZN       0.060700
     41 HAM1         5.9710    -0.2940    -2.1320 hc         1 XZN       0.083200
     42 HAM2         5.8570     0.9990    -0.9300 hc         1 XZN       0.083200
     43 HAH          3.8150     0.0480     6.9410 h4         1 XZN       0.042100
     44 HAK          5.1750     0.0450     2.5300 ha         1 XZN       0.166000
     45 HAL          0.7300    -0.8830     2.6260 ha         1 XZN       0.179000
     46 HAN1         5.5100    -1.0150     0.6190 h1         1 XZN       0.041700
     47 HAN2         6.2150     0.5740     0.9460 h1         1 XZN       0.041700
     48 HAO1        10.7420    -1.6430    -6.5200 h1         1 XZN       0.013367
     49 HAO2        10.3480     0.0670    -6.7480 h1         1 XZN       0.013367
     50 HAO3        11.6340    -0.4020    -5.6280 h1         1 XZN       0.013367
     51 HAP1         6.7980    -1.1780    -3.6060 h1         1 XZN       0.051200
     52 HAP2         8.3020    -1.9840    -3.1500 h1         1 XZN       0.051200
     53 HAR1         8.2390    -1.9830    -5.5280 h1         1 XZN       0.043450
     54 HAR2         7.7640    -0.2830    -5.5880 h1         1 XZN       0.043450
     55 HAQ1        10.2320    -0.3080    -2.4060 h1         1 XZN       0.051200
     56 HAQ2         9.7580     1.3920    -2.4640 h1         1 XZN       0.051200
     57 HAS1         9.6940     1.3950    -4.8430 h1         1 XZN       0.043450
     58 HAS2        11.1980     0.5890    -4.3870 h1         1 XZN       0.043450
     59 HAU          0.6870     0.0260     5.2380 hn         1 XZN       0.512800
     60 HAJ          0.8790    -2.3970     4.4460 ha         1 XZN       0.157000
     61 HAZ         -2.8190    -0.3120     4.9900 ha         1 XZN       0.157000
     62 CAG          1.1760    -0.0060     7.2610 cg         1 XZN       0.219800
     63 NAU         -0.2010    -0.0060     4.7770 nu         1 XZN      -0.685000
     64 OAW          4.1750     0.0020     0.1300 os         1 XZN      -0.302900
     65 O02         -2.9520    -4.7880     4.3980 os         1 XZN      -0.326900
@<TRIPOS>BOND
     1     1    17 1
     2    65    18 1
     3    65    31 1
     4     2     9 1
     5     2    28 1
     6     3    62 3
     7     4    19 1
     8     5    32 1
     9    62    21 1
    10     6    16 ar
    11     6    21 ar
    12     7    24 ar
    13     7    26 ar
    14     8    23 ar
    15     8    27 ar
    16     9    10 1
    17    10    64 1
    18    11    30 1
    19    13    15 1
    20    13    28 1
    21    12    14 1
    22    12    28 1
    23    15    30 1
    24    14    30 1
    25    16    26 ar
    26    63    22 1
    27    63    25 1
    28    17    23 1
    29    64    24 1
    30    18    19 ar
    31    18    32 ar
    32    19    29 ar
    33    20    22 ar
    34    20    32 ar
    35    21    25 ar
    36    22    29 ar
    37    23    24 ar
    38    25    27 ar
    39    26    27 ar
    40     1    33 1
    41     1    34 1
    42     1    35 1
    43    31    36 1
    44    31    37 1
    45    31    38 1
    46     2    39 1
    47     2    40 1
    48     9    41 1
    49     9    42 1
    50     6    43 1
    51     7    44 1
    52     8    45 1
    53    10    46 1
    54    10    47 1
    55    11    48 1
    56    11    49 1
    57    11    50 1
    58    13    51 1
    59    13    52 1
    60    15    53 1
    61    15    54 1
    62    12    55 1
    63    12    56 1
    64    14    57 1
    65    14    58 1
    66    63    59 1
    67    29    60 1
    68    20    61 1
@<TRIPOS>SUBSTRUCTURE
     1 XZN         1 TEMP              0 ****  ****    0 ROOT
