@<TRIPOS>MOLECULE
XZP
   20    20     1     0     0
SMALL
bcc


@<TRIPOS>ATOM
      1 O            0.0000     0.0000     0.0000 o          1 XZP      -0.852300
      2 C            1.2070     0.0000     0.0000 c          1 XZP       0.964600
      3 CA           1.9620     0.0000     1.3050 c3         1 XZP      -0.160700
      4 CB           0.9840    -0.0950     2.4930 c3         1 XZP      -0.092500
      5 N            0.7430     1.2420     3.0540 nz         1 XZP       0.078400
      6 CG           1.6560    -0.9940     3.5450 c3         1 XZP      -0.029400
      7 CD           3.0200    -1.4150     2.9580 c3         1 XZP      -0.036400
      8 CE           2.8340    -1.2740     1.4270 c3         1 XZP       0.017600
      9 O1           1.8790    -0.0060    -1.1640 o          1 XZP      -0.852300
     10 H1           2.5770     0.8870     1.3930 hc         1 XZP       0.024700
     11 H2           0.0510    -0.5400     2.1690 hx         1 XZP       0.130700
     12 H3           1.6030     1.6190     3.4000 hn         1 XZP       0.213800
     13 H4           0.0820     1.1750     3.8030 hn         1 XZP       0.213800
     14 H6           1.0460    -1.8700     3.7260 hc         1 XZP       0.018200
     15 H7           1.8050    -0.4410     4.4640 hc         1 XZP       0.018200
     16 H8           3.8020    -0.7520     3.3060 hc         1 XZP       0.020700
     17 H9           3.2410    -2.4430     3.2180 hc         1 XZP       0.020700
     18 H10          2.3130    -2.1340     1.0240 hc         1 XZP       0.043200
     19 H11          3.7900    -1.1310     0.9380 hc         1 XZP       0.043200
     20 HN3          0.3750     1.8410     2.3420 hn         1 XZP       0.213800
@<TRIPOS>BOND
     1     1     2 1   
     2     2     3 1   
     3     2     9 1   
     4     3     4 1   
     5     3     8 1   
     6     3    10 1   
     7     4     5 1   
     8     4     6 1   
     9     4    11 1   
    10     5    12 1   
    11     5    13 1   
    12     5    20 1   
    13     6     7 1   
    14     6    14 1   
    15     6    15 1   
    16     7     8 1   
    17     7    16 1   
    18     7    17 1   
    19     8    18 1   
    20     8    19 1   
@<TRIPOS>SUBSTRUCTURE
     1 XZP         1 TEMP              0 ****  ****    0 ROOT
