@<TRIPOS>MOLECULE
molecule
   20    20     1     0     0
SMALL
bcc


@<TRIPOS>ATOM
      1 O            0.0000     0.0000     0.0000 o          1 XZP      -0.807800
      2 C            1.2070     0.0000     0.0000 c          1 XZP       0.880600
      3 CA           1.9620     0.0000     1.3050 c3         1 XZP      -0.195700
      4 CB           0.9840    -0.0950     2.4930 c3         1 XZP       0.097500
      5 N            0.7430     1.2420     3.0540 nz         1 XZP      -0.799600
      6 CG           1.6560    -0.9940     3.5450 c3         1 XZP      -0.109400
      7 CD           3.0200    -1.4150     2.9580 c3         1 XZP      -0.095400
      8 CE           2.8340    -1.2740     1.4270 c3         1 XZP      -0.045400
      9 O1           1.8790    -0.0060    -1.1640 o          1 XZP      -0.807800
     10 H1           2.5770     0.8870     1.3930 hc         1 XZP       0.049700
     11 H2           0.0510    -0.5400     2.1690 hx         1 XZP       0.149700
     12 H3           1.6030     1.6190     3.4000 hn         1 XZP       0.441800
     13 H4           0.0820     1.1750     3.8030 hn         1 XZP       0.441800
     14 H6           1.0460    -1.8700     3.7260 hc         1 XZP       0.050700
     15 H7           1.8050    -0.4410     4.4640 hc         1 XZP       0.050700
     16 H8           3.8020    -0.7520     3.3060 hc         1 XZP       0.051200
     17 H9           3.2410    -2.4430     3.2180 hc         1 XZP       0.051200
     18 H10          2.3130    -2.1340     1.0240 hc         1 XZP       0.077200
     19 H11          3.7900    -1.1310     0.9380 hc         1 XZP       0.077200
     20 HN3          0.3750     1.8410     2.3420 hn         1 XZP       0.441800
@<TRIPOS>BOND
     1     1     2 1
     2     2     3 1
     3     5     4 1
     4     4     3 1
     5     4     6 1
     6     3     8 1
     7     6     7 1
     8     8     7 1
     9     2     9 1
    10     3    10 1
    11     4    11 1
    12     5    12 1
    13     5    13 1
    14     6    14 1
    15     6    15 1
    16     7    16 1
    17     7    17 1
    18     8    18 1
    19     8    19 1
    20    20     5 1
@<TRIPOS>SUBSTRUCTURE
     1 XZP         1 TEMP              0 ****  ****    0 ROOT
