@<TRIPOS>MOLECULE
molecule
   21    22     1     0     0
SMALL
bcc


@<TRIPOS>ATOM
      1 C5           0.0000     0.0000     0.0000 ca         1 XZZ      -0.059000
      2 Cl           2.2280     0.0010    -1.5070 cl         1 XZZ      -0.082400
      3 C6           1.3650     0.0000     0.0000 ca         1 XZZ      -0.023600
      4 C7           2.0720     0.0000     1.2020 ca         1 XZZ       0.161100
      5 C2          -2.0030    -0.0050     3.6370 c          1 XZZ       0.739800
      6 C3          -2.7750     0.0030     2.4560 cc         1 XZZ      -0.274200
      7 C4          -2.1590     0.0040     1.2460 cd         1 XZZ       0.023600
      8 O2          -2.5690    -0.0080     4.7150 o          1 XZZ      -0.571500
      9 O1          -0.6620    -0.0080     3.6010 os         1 XZZ      -0.305200
     10 CM4         -2.9600     0.0100    -0.0300 c3         1 XZZ      -0.061900
     11 C4A         -0.6940    -0.0010     1.2150 ca         1 XZZ      -0.156800
     12 C8A          0.0130    -0.0060     2.4310 ca         1 XZZ       0.182100
     13 C8           1.4000    -0.0000     2.4130 ca         1 XZZ      -0.173000
     14 O7           3.4290     0.0010     1.1860 oh         1 XZZ      -0.504100
     15 H5          -0.5420    -0.0920    -0.9340 ha         1 XZZ       0.157000
     16 HM41        -2.7520    -0.8920    -0.5920 hc         1 XZZ       0.057367
     17 HM42        -4.0160     0.0520     0.2070 hc         1 XZZ       0.057367
     18 HM43        -2.6880     0.8750    -0.6230 hc         1 XZZ       0.057367
     19 H3          -3.8550    -0.0660     2.5140 ha         1 XZZ       0.173000
     20 H8           1.9550    -0.0000     3.3430 ha         1 XZZ       0.170000
     21 H7           3.7440     0.8810     1.3110 ho         1 XZZ       0.432000
@<TRIPOS>BOND
     1     2     3 1
     2     3     1 ar
     3     3     4 ar
     4     1    11 ar
     5    11     7 1
     6    11    12 ar
     7     7    10 1
     8     7     6 2
     9     6     5 1
    10     5     8 2
    11     5     9 1
    12     9    12 1
    13    12    13 ar
    14    13     4 ar
    15     4    14 1
    16     1    15 1
    17    10    16 1
    18    10    17 1
    19    10    18 1
    20     6    19 1
    21    13    20 1
    22    14    21 1
@<TRIPOS>SUBSTRUCTURE
     1 XZZ         1 TEMP              0 ****  ****    0 ROOT
