@<TRIPOS>MOLECULE
XZZ
   21    22     1     0     0
SMALL
bcc


@<TRIPOS>ATOM
      1 C5          0.0120    0.0840    0.0240 ca        1 XZZ     -0.030000
      2 CL          2.2700    0.1730   -1.4030 cl        1 XZZ     -0.083400
      3 C6          1.4000    0.1210    0.0590 ca        1 XZZ     -0.100600
      4 C7          2.0800    0.1150    1.3000 ca        1 XZZ      0.184100
      5 C2         -2.0770   -0.0460    3.6800 c         1 XZZ      0.723800
      6 C3         -2.8170   -0.0410    2.4300 cc        1 XZZ     -0.266200
      7 C4         -2.1830   -0.0000    1.2340 cd        1 XZZ      0.055600
      8 O2         -2.4930   -0.0800    4.8370 o         1 XZZ     -0.558500
      9 O1         -0.6790   -0.0070    3.6590 os        1 XZZ     -0.323200
     10 CM4        -2.9310    0.0050   -0.0430 c3        1 XZZ     -0.075900
     11 C4A        -0.7340    0.0400    1.2120 ca        1 XZZ     -0.178800
     12 C8A        -0.0400    0.0340    2.4420 ca        1 XZZ      0.190100
     13 C8          1.3610    0.0710    2.4990 ca        1 XZZ     -0.181000
     14 O7          3.4430    0.1490    1.4230 oh        1 XZZ     -0.479100
     15 H5         -0.5130    0.0890   -0.9460 ha        1 XZZ      0.155000
     16 HM41       -2.6950    0.9320   -0.6240 hc        1 XZZ      0.060367
     17 HM42       -2.6450   -0.8840   -0.6610 hc        1 XZZ      0.060367
     18 HM43       -4.0350   -0.0290    0.1350 hc        1 XZZ      0.060367
     19 H3         -3.9120   -0.0730    2.5260 ha        1 XZZ      0.171000
     20 H8          1.8840    0.0660    3.4670 ha        1 XZZ      0.183000
     21 H7          3.8350    0.1770    0.5350 ho        1 XZZ      0.436000
@<TRIPOS>BOND
     1    1    3 ar  
     2    1   11 ar  
     3    1   15 1   
     4    2    3 1   
     5    3    4 ar  
     6    4   13 ar  
     7    4   14 1   
     8    5    6 1   
     9    5    8 2   
    10    5    9 1   
    11    6    7 2   
    12    6   19 1   
    13    7   10 1   
    14    7   11 1   
    15    9   12 1   
    16   10   16 1   
    17   10   17 1   
    18   10   18 1   
    19   11   12 ar  
    20   12   13 ar  
    21   13   20 1   
    22   14   21 1   
@<TRIPOS>SUBSTRUCTURE
     1 XZZ         1 TEMP              0 ****  ****    0 ROOT
