@<TRIPOS>MOLECULE
U01
   40    42     1     0     0
SMALL
bcc


@<TRIPOS>ATOM
      1 CA         -0.1510   -0.0220    0.0960 cc        1 U01     -0.234400
      2 CA2         1.3000   -0.1410    0.0020 c         1 U01      0.734800
      3 CA4         1.4850   -0.0330    2.3800 ca        1 U01      0.168100
      4 CA5         0.0890    0.0720    2.5370 ca        1 U01     -0.182800
      5 CA6        -0.7270    0.0880    1.3330 cd        1 U01      0.226900
      6 CB1        -1.3100    1.3890   -1.5540 ca        1 U01     -0.058300
      7 CB2        -0.5140    2.1600   -2.4120 ca        1 U01     -0.123500
      8 CB3        -0.8830    3.4610   -2.7450 ca        1 U01     -0.107500
      9 CB4        -2.0580    4.0100   -2.2230 ca        1 U01     -0.027900
     10 CB5        -2.8550    3.2500   -1.3640 ca        1 U01     -0.107500
     11 CB6        -2.4810    1.9490   -1.0320 ca        1 U01     -0.123500
     12 CG1        -0.8730   -0.0090   -1.2190 c3        1 U01      0.043800
     13 CG2        -2.0180   -1.0270   -1.2790 c3        1 U01     -0.060700
     14 CG3        -2.7030   -0.9790   -2.6310 c3        1 U01     -0.091600
     15 CG4        -1.4980   -2.4270   -1.0200 c3        1 U01     -0.091600
     16 CD1         2.3530   -0.0440    3.4910 ca        1 U01     -0.145000
     17 CD2         1.8130    0.0410    4.7630 ca        1 U01     -0.079000
     18 CD3         0.4250    0.1340    4.9400 ca        1 U01     -0.152000
     19 CD4        -0.4240    0.1470    3.8450 ca        1 U01     -0.085000
     20 OA2         2.0100   -0.2510   -0.9970 o         1 U01     -0.570500
     21 OA3         2.0920   -0.1340    1.1530 os        1 U01     -0.323200
     22 OA6        -2.0910    0.1940    1.4130 oh        1 U01     -0.480100
     23 BR         -2.5610    5.7580   -2.6710 br        1 U01     -0.095100
     24 HB2         0.4170    1.7370   -2.8240 ha        1 U01      0.148000
     25 HB3        -0.2440    4.0500   -3.4210 ha        1 U01      0.145000
     26 HB5        -3.7820    3.6700   -0.9440 ha        1 U01      0.145000
     27 HB6        -3.1090    1.3590   -0.3460 ha        1 U01      0.148000
     28 HG1        -0.1270   -0.3300   -2.0130 hc        1 U01      0.084700
     29 HG2        -2.7740   -0.7740   -0.4840 hc        1 U01      0.061700
     30 HG31       -3.5340   -1.7240   -2.6640 hc        1 U01      0.036867
     31 HG32       -3.1260    0.0380   -2.8170 hc        1 U01      0.036867
     32 HG33       -1.9800   -1.2190   -3.4470 hc        1 U01      0.036867
     33 HG41       -0.7470   -2.7190   -1.7940 hc        1 U01      0.036867
     34 HG42       -1.0140   -2.4850   -0.0160 hc        1 U01      0.036867
     35 HG43       -2.3410   -3.1590   -1.0520 hc        1 U01      0.036867
     36 HD1         3.4380   -0.1220    3.3230 ha        1 U01      0.165000
     37 HD2         2.4760    0.0340    5.6420 ha        1 U01      0.146000
     38 HD3         0.0100    0.1940    5.9570 ha        1 U01      0.144000
     39 HD4        -1.5100    0.2110    4.0170 ha        1 U01      0.130000
     40 HO6        -2.3380    0.4400    2.3170 ho        1 U01      0.429000
@<TRIPOS>BOND
     1    1    2 1
     2    1    5 2
     3    1   12 1
     4    2   20 2
     5    2   21 1
     6    3    4 ar
     7    3   16 ar
     8    3   21 1
     9    4    5 1
    10    4   19 ar
    11    5   22 1
    12    6    7 ar
    13    6   11 ar
    14    6   12 1
    15    7    8 ar
    16    7   24 1
    17    8    9 ar
    18    8   25 1
    19    9   10 ar
    20    9   23 1
    21   10   11 ar
    22   10   26 1
    23   11   27 1
    24   12   13 1
    25   12   28 1
    26   13   14 1
    27   13   15 1
    28   13   29 1
    29   14   30 1
    30   14   31 1
    31   14   32 1
    32   15   33 1
    33   15   34 1
    34   15   35 1
    35   16   17 ar
    36   16   36 1
    37   17   18 ar
    38   17   37 1
    39   18   19 ar
    40   18   38 1
    41   19   39 1
    42   22   40 1
@<TRIPOS>SUBSTRUCTURE
     1 U01         1 TEMP              0 ****  ****    0 ROOT
