@<TRIPOS>MOLECULE
U02
   80    83     1     0     0
SMALL
bcc


@<TRIPOS>ATOM
      1 CZ8         0.7210    1.9710    1.7830 c3        1 U02     -0.131100
      2 CZ7         2.4270    2.2540   -0.0450 c3        1 U02     -0.131100
      3 CZ6         0.6200    0.5110   -0.2650 c3        1 U02     -0.131100
      4 CZ5         1.5100    1.2920    0.6760 c3        1 U02      0.202800
      5 OZ5         2.3410    0.3270    1.4700 os        1 U02     -0.417900
      6 CZ4         3.2060   -0.4610    0.8320 c         1 U02      0.636100
      7 OZ4         3.4310   -0.5750   -0.3630 o         1 U02     -0.428000
      8 NZ3         3.9600   -1.3140    1.8250 n4        1 U02     -0.650800
      9 CZ3         5.0880   -0.5390    2.4270 c3        1 U02      0.116800
     10 CZ2         5.8910   -1.3560    3.4300 c3        1 U02     -0.200400
     11 CZ1         6.9610   -0.4270    4.0250 c         1 U02      0.669100
     12 OZ1         6.9720    0.7710    3.6810 o         1 U02     -0.600100
     13 NZ1         7.8360   -1.0140    4.8990 n         1 U02     -0.437100
     14 CB5         8.8750   -0.3710    5.6150 ca        1 U02      0.026600
     15 CB4         9.3490    0.9130    5.2910 ca        1 U02     -0.142000
     16 CB3        10.4010    1.4600    6.0240 ca        1 U02     -0.112000
     17 CB2        10.9880    0.7590    7.0730 ca        1 U02     -0.118000
     18 CB1        10.5120   -0.5110    7.4160 ca        1 U02     -0.037300
     19 CB6         9.4640   -1.0780    6.6870 ca        1 U02     -0.158000
     20 CG1        11.1030   -1.3060    8.5470 c3        1 U02      0.059800
     21 CG2        11.3660   -0.4540    9.7630 cx        1 U02     -0.069300
     22 CG3        10.2750   -0.2000   10.7500 cu        1 U02     -0.184700
     23 CG4        11.2190   -1.0370   11.1300 cu        1 U02     -0.184700
     24 CA         12.3190   -2.0450    8.0840 cc        1 U02     -0.268400
     25 CA2        12.0940   -3.4230    7.6840 c         1 U02      0.734800
     26 OA2        11.0420   -4.0630    7.6140 o         1 U02     -0.598500
     27 OA3        13.1700   -4.2300    7.2870 os        1 U02     -0.320200
     28 CA4        14.4290   -3.6970    7.2490 cc        1 U02      0.182900
     29 CA5        14.6790   -2.3980    7.5730 cd        1 U02     -0.328000
     30 CA6        13.5950   -1.5470    7.9920 cd        1 U02      0.237100
     31 OA6        13.8420   -0.2350    8.2910 oh        1 U02     -0.478100
     32 CD         15.4720   -4.6870    6.8220 c3        1 U02     -0.024500
     33 CD1        15.2400   -5.1300    5.3810 c3        1 U02     -0.081400
     34 CD2        15.6270   -4.0670    4.3870 c3        1 U02     -0.097100
     35 CE         15.4610   -5.8860    7.7710 c3        1 U02     -0.032100
     36 CE1        16.6920   -6.7110    7.6360 ca        1 U02     -0.089300
     37 CE2        17.8930   -6.2820    8.2140 ca        1 U02     -0.126000
     38 CE3        19.0440   -7.0600    8.1040 ca        1 U02     -0.125500
     39 CE4        19.0060   -8.2740    7.4180 ca        1 U02     -0.124000
     40 CE5        17.8120   -8.7080    6.8420 ca        1 U02     -0.125500
     41 CE6        16.6590   -7.9300    6.9490 ca        1 U02     -0.126000
     42 HZ81        1.4060    2.4850    2.4980 hc        1 U02      0.073811
     43 HZ82        0.1050    1.2260    2.3430 hc        1 U02      0.073811
     44 HZ83        0.0430    2.7280    1.3170 hc        1 U02      0.073811
     45 HZ71        1.8080    3.0540   -0.5230 hc        1 U02      0.073811
     46 HZ72        3.0080    1.7320   -0.8440 hc        1 U02      0.073811
     47 HZ73        3.1360    2.7350    0.6710 hc        1 U02      0.073811
     48 HZ61        1.2210    0.0050   -1.0590 hc        1 U02      0.073811
     49 HZ62       -0.0940    1.2170   -0.7570 hc        1 U02      0.073811
     50 HZ63        0.0310   -0.2560    0.2950 hc        1 U02      0.073811
     51 HNZ3        4.3240   -2.1380    1.3290 hn        1 U02      0.467300
     52 HZ31        4.6540    0.3750    2.9330 hx        1 U02      0.134200
     53 HZ32        5.7620   -0.1890    1.5910 hx        1 U02      0.134200
     54 HZ21        5.2380   -1.7380    4.2580 hc        1 U02      0.085700
     55 HZ22        6.3860   -2.2300    2.9310 hc        1 U02      0.085700
     56 HNZ1        7.7080   -1.9790    5.1150 hn        1 U02      0.326500
     57 HB4         8.9030    1.4940    4.4680 ha        1 U02      0.162000
     58 HB3        10.7720    2.4630    5.7610 ha        1 U02      0.142000
     59 HB2        11.8330    1.1950    7.6300 ha        1 U02      0.154000
     60 HB6         9.1220   -2.0920    6.9550 ha        1 U02      0.147000
     61 HG1        10.3380   -2.0900    8.8480 hc        1 U02      0.078700
     62 HG2        12.1330    0.3280    9.5850 hc        1 U02      0.082700
     63 HG3         9.3690    0.3430   10.9190 ha        1 U02      0.191500
     64 HG4        11.6660   -1.6980   11.8430 ha        1 U02      0.191500
     65 HA5        15.6980   -1.9900    7.5250 ha        1 U02      0.162000
     66 HO6        14.7960   -0.0770    8.2140 ho        1 U02      0.434000
     67 HD         16.4770   -4.1790    6.8930 hc        1 U02      0.074700
     68 HD11       15.8500   -6.0570    5.1990 hc        1 U02      0.061700
     69 HD12       14.1610   -5.4060    5.2500 hc        1 U02      0.061700
     70 HD21       15.4100   -4.4160    3.3490 hc        1 U02      0.037367
     71 HD22       15.0550   -3.1250    4.5710 hc        1 U02      0.037367
     72 HD23       16.7180   -3.8340    4.4590 hc        1 U02      0.037367
     73 HE1        15.3800   -5.5150    8.8280 hc        1 U02      0.063200
     74 HE2A       14.5460   -6.5030    7.5640 hc        1 U02      0.063200
     75 HE2        17.9250   -5.3280    8.7610 ha        1 U02      0.130500
     76 HE3        19.9840   -6.7170    8.5620 ha        1 U02      0.135500
     77 HE4        19.9140   -8.8880    7.3330 ha        1 U02      0.137000
     78 HE5        17.7770   -9.6660    6.3030 ha        1 U02      0.135500
     79 HE6        15.7180   -8.2790    6.4970 ha        1 U02      0.130500
     80 HZ33        3.3170   -1.6190    2.5650 hn        1 U02      0.467300
@<TRIPOS>BOND
     1    1    4 1   
     2    1   42 1   
     3    1   43 1   
     4    1   44 1   
     5    2    4 1   
     6    2   45 1   
     7    2   46 1   
     8    2   47 1   
     9    3    4 1   
    10    3   48 1   
    11    3   49 1   
    12    3   50 1   
    13    4    5 1   
    14    5    6 1   
    15    6    7 2   
    16    6    8 1   
    17    8    9 1   
    18    8   51 1   
    19    8   80 1   
    20    9   10 1   
    21    9   52 1   
    22    9   53 1   
    23   10   11 1   
    24   10   54 1   
    25   10   55 1   
    26   11   12 2   
    27   11   13 1   
    28   13   14 1   
    29   13   56 1   
    30   14   15 ar  
    31   14   19 ar  
    32   15   16 ar  
    33   15   57 1   
    34   16   17 ar  
    35   16   58 1   
    36   17   18 ar  
    37   17   59 1   
    38   18   19 ar  
    39   18   20 1   
    40   19   60 1   
    41   20   21 1   
    42   20   24 1   
    43   20   61 1   
    44   21   22 1   
    45   21   23 1   
    46   21   62 1   
    47   22   23 2   
    48   22   63 1   
    49   23   64 1   
    50   24   25 1   
    51   24   30 2   
    52   25   26 2   
    53   25   27 1   
    54   27   28 1   
    55   28   29 2   
    56   28   32 1   
    57   29   30 1   
    58   29   65 1   
    59   30   31 1   
    60   31   66 1   
    61   32   33 1   
    62   32   35 1   
    63   32   67 1   
    64   33   34 1   
    65   33   68 1   
    66   33   69 1   
    67   34   70 1   
    68   34   71 1   
    69   34   72 1   
    70   35   36 1   
    71   35   73 1   
    72   35   74 1   
    73   36   37 ar  
    74   36   41 ar  
    75   37   38 ar  
    76   37   75 1   
    77   38   39 ar  
    78   38   76 1   
    79   39   40 ar  
    80   39   77 1   
    81   40   41 ar  
    82   40   78 1   
    83   41   79 1   
@<TRIPOS>SUBSTRUCTURE
     1 U02         1 TEMP              0 ****  ****    0 ROOT
