@<TRIPOS>MOLECULE
U03
   41    43     1     0     0
SMALL
bcc


@<TRIPOS>ATOM
      1 CA         -0.1460   -0.0670   -0.0410 cc        1 U03     -0.240400
      2 CA2         1.2080   -0.6060   -0.0390 c         1 U03      0.737800
      3 CA4         1.3210   -0.3730    2.3360 ca        1 U03      0.201100
      4 CA5        -0.0010    0.1210    2.4010 ca        1 U03     -0.217800
      5 CA6        -0.7240    0.2770    1.1510 cd        1 U03      0.229900
      6 CB1        -0.6260    1.4460   -1.9370 ca        1 U03     -0.073300
      7 CB2         0.2540    1.6710   -3.0030 ca        1 U03     -0.121500
      8 CB3         0.4090    2.9520   -3.5320 ca        1 U03     -0.134000
      9 CB4        -0.3110    4.0210   -3.0000 ca        1 U03     -0.131000
     10 CB5        -1.1840    3.8060   -1.9340 ca        1 U03     -0.134000
     11 CB6        -1.3390    2.5260   -1.4030 ca        1 U03     -0.121500
     12 CG1        -0.7820    0.0550   -1.3930 c3        1 U03      0.044800
     13 CG2        -2.2380   -0.4020   -1.3830 c3        1 U03     -0.070400
     14 CG3        -2.7170   -0.7660   -2.7650 c3        1 U03     -0.094100
     15 CD1         2.1070   -0.5420    3.4860 ca        1 U03     -0.184000
     16 CD2         1.5460   -0.2150    4.7260 ca        1 U03      0.176100
     17 CD3         0.2260    0.2670    4.8180 ca        1 U03     -0.226000
     18 CD4        -0.5270    0.4280    3.6670 ca        1 U03     -0.048000
     19 CE3         1.8410   -0.0870    7.0870 c3        1 U03      0.110700
     20 OA2         1.8920   -1.0100   -0.9790 o         1 U03     -0.566500
     21 OA3         1.9250   -0.7270    1.1560 os        1 U03     -0.325200
     22 OA6        -2.0080    0.7580    1.1350 oh        1 U03     -0.480100
     23 OE3         2.3770   -0.4060    5.8060 os        1 U03     -0.315900
     24 HB2         0.8330    0.8330   -3.4220 ha        1 U03      0.139000
     25 HB3         1.1030    3.1170   -4.3690 ha        1 U03      0.129000
     26 HB4        -0.1900    5.0310   -3.4180 ha        1 U03      0.129000
     27 HB5        -1.7510    4.6470   -1.5090 ha        1 U03      0.129000
     28 HB6        -2.0230    2.3620   -0.5560 ha        1 U03      0.139000
     29 HG1        -0.2200   -0.6490   -2.0830 hc        1 U03      0.079700
     30 HG21       -2.3320   -1.2920   -0.7060 hc        1 U03      0.048200
     31 HG22       -2.8900    0.4060   -0.9570 hc        1 U03      0.048200
     32 HG31       -3.7950   -1.0550   -2.7330 hc        1 U03      0.035700
     33 HG32       -2.1340   -1.6270   -3.1740 hc        1 U03      0.035700
     34 HG33       -2.6010    0.0990   -3.4620 hc        1 U03      0.035700
     35 HD1         3.1350   -0.9240    3.4090 ha        1 U03      0.180000
     36 HD3        -0.2130    0.5160    5.7950 ha        1 U03      0.147000
     37 HD4        -1.5590    0.7990    3.7690 ha        1 U03      0.130000
     38 HE31        1.5710    0.9960    7.1420 h1        1 U03      0.050367
     39 HE32        0.9550   -0.7280    7.3140 h1        1 U03      0.050367
     40 HE33        2.6870   -0.3200    7.7830 h1        1 U03      0.050367
     41 HO6        -2.2320    1.0940    2.0140 ho        1 U03      0.426000
@<TRIPOS>BOND
     1    1    2 1   
     2    1    5 2   
     3    1   12 1   
     4    2   20 2   
     5    2   21 1   
     6    3    4 ar  
     7    3   15 ar  
     8    3   21 1   
     9    4    5 1   
    10    4   18 ar  
    11    5   22 1   
    12    6    7 ar  
    13    6   11 ar  
    14    6   12 1   
    15    7    8 ar  
    16    7   24 1   
    17    8    9 ar  
    18    8   25 1   
    19    9   10 ar  
    20    9   26 1   
    21   10   11 ar  
    22   10   27 1   
    23   11   28 1   
    24   12   13 1   
    25   12   29 1   
    26   13   14 1   
    27   13   30 1   
    28   13   31 1   
    29   14   32 1   
    30   14   33 1   
    31   14   34 1   
    32   15   16 ar  
    33   15   35 1   
    34   16   17 ar  
    35   16   23 1   
    36   17   18 ar  
    37   17   36 1   
    38   18   37 1   
    39   19   23 1   
    40   19   38 1   
    41   19   39 1   
    42   19   40 1   
    43   22   41 1   
@<TRIPOS>SUBSTRUCTURE
     1 U03         1 TEMP              0 ****  ****    0 ROOT
