@<TRIPOS>MOLECULE
U04
   62    64     1     0     0
SMALL
bcc


@<TRIPOS>ATOM
      1 CA         -0.1960   -0.0280   -0.1360 cc        1 U04     -0.263400
      2 CA2         1.2050   -0.3660   -0.3520 c         1 U04      0.742800
      3 CA3         1.5840   -0.3870    2.0010 ca        1 U04      0.165100
      4 CA4         2.5170   -0.6040    3.0350 ca        1 U04     -0.143000
      5 CA5         2.1070   -0.4490    4.3490 ca        1 U04     -0.071000
      6 CA6         0.7850   -0.0790    4.6410 ca        1 U04     -0.145000
      7 CA7        -0.1290    0.1320    3.6210 ca        1 U04     -0.083000
      8 CA8         0.2510   -0.0210    2.2740 ca        1 U04     -0.188800
      9 CA9        -0.6440    0.1650    1.1440 cd        1 U04      0.245900
     10 CB         -1.0150    0.0850   -1.3850 c3        1 U04      0.046800
     11 CB1        -0.8930    1.4720   -1.9530 ca        1 U04     -0.041300
     12 CB2        -1.7080    2.5310   -1.5390 ca        1 U04     -0.112000
     13 CB3        -1.5490    3.7940   -2.1030 ca        1 U04     -0.111000
     14 CB4        -0.5730    4.0360   -3.0670 ca        1 U04     -0.135000
     15 CB5         0.2680    2.9830   -3.4720 ca        1 U04      0.012600
     16 CB6         0.0980    1.6990   -2.9120 ca        1 U04     -0.147000
     17 CB7        -2.4570   -0.3700   -1.1960 c3        1 U04     -0.072400
     18 CB8        -3.1210   -0.6810   -2.5130 c3        1 U04     -0.096100
     19 CG1         1.4860    4.2050   -5.2530 c         1 U04      0.649100
     20 CG2         2.6860    4.0910   -6.2330 c3        1 U04      0.006800
     21 CG3         3.5730    5.2220   -8.2690 c         1 U04      0.635100
     22 CG4         5.0990    6.3620   -9.8040 c3        1 U04      0.202800
     23 CG5         5.8440    7.6760   -9.6230 c3        1 U04     -0.130433
     24 CG6         6.0400    5.1860   -9.9330 c3        1 U04     -0.130433
     25 CG7         4.0850    6.4310  -10.9240 c3        1 U04     -0.130433
     26 NB5         1.3200    3.1500   -4.4120 n         1 U04     -0.411100
     27 NG2         2.9130    5.3890   -6.9260 n4        1 U04     -0.637800
     28 OA2         1.8080   -0.5230   -1.4170 o         1 U04     -0.600500
     29 OA3         2.0690   -0.5490    0.7240 os        1 U04     -0.318200
     30 OA9        -1.9470    0.5410    1.3240 oh        1 U04     -0.478100
     31 OG1         0.7850    5.2380   -5.3130 o         1 U04     -0.608100
     32 OG3         3.3460    4.2500   -8.9750 o         1 U04     -0.432000
     33 OG4         4.3740    6.2640   -8.4950 os        1 U04     -0.422900
     34 HA4         3.5460   -0.8940    2.7780 ha        1 U04      0.167000
     35 HA5         2.8210   -0.6170    5.1710 ha        1 U04      0.152000
     36 HA6         0.4750    0.0430    5.6910 ha        1 U04      0.151000
     37 HA7        -1.1580    0.4210    3.8850 ha        1 U04      0.133000
     38 HB         -0.5510   -0.6310   -2.1360 hc        1 U04      0.078700
     39 HB2        -2.4710    2.3690   -0.7610 ha        1 U04      0.155000
     40 HB3        -2.2010    4.6220   -1.7820 ha        1 U04      0.147000
     41 HB4        -0.4740    5.0450   -3.4980 ha        1 U04      0.162000
     42 HB6         0.7580    0.8600   -3.1960 ha        1 U04      0.158000
     43 HB71       -2.4560   -1.2880   -0.5490 hc        1 U04      0.054200
     44 HB72       -3.0490    0.4110   -0.6500 hc        1 U04      0.054200
     45 HB81       -3.1150    0.2150   -3.1800 hc        1 U04      0.038367
     46 HB82       -4.1810   -0.9890   -2.3430 hc        1 U04      0.038367
     47 HB83       -2.5930   -1.5140   -3.0390 hc        1 U04      0.038367
     48 HG21        2.4450    3.3030   -7.0080 hx        1 U04      0.134200
     49 HG22        3.6300    3.8050   -5.6910 hx        1 U04      0.134200
     50 HG51        6.5370    7.6180   -8.7510 hc        1 U04      0.073478
     51 HG52        6.4360    7.8730  -10.5500 hc        1 U04      0.073478
     52 HG53        5.1270    8.5160   -9.4620 hc        1 U04      0.073478
     53 HG61        6.7040    5.1110   -9.0380 hc        1 U04      0.073478
     54 HG62        5.4730    4.2300  -10.0520 hc        1 U04      0.073478
     55 HG63        6.6800    5.3320  -10.8390 hc        1 U04      0.073478
     56 HG71        4.6190    6.6400  -11.8840 hc        1 U04      0.073478
     57 HG72        3.5380    5.4620  -11.0290 hc        1 U04      0.073478
     58 HG73        3.3500    7.2510  -10.7410 hc        1 U04      0.073478
     59 HN5         1.9400    2.3710   -4.4950 hn        1 U04      0.336500
     60 HN2         1.9920    5.8510   -7.0620 hn        1 U04      0.486300
     61 HO9        -2.1520    0.5520    2.2710 ho        1 U04      0.436000
     62 HG23        3.4840    6.0110   -6.3380 hn        1 U04      0.486300
@<TRIPOS>BOND
     1    1    2 1
     2    1    9 2
     3    1   10 1
     4    2   28 2
     5    2   29 1
     6    3    4 ar
     7    3    8 ar
     8    3   29 1
     9    4    5 ar
    10    4   34 1
    11    5    6 ar
    12    5   35 1
    13    6    7 ar
    14    6   36 1
    15    7    8 ar
    16    7   37 1
    17    8    9 1
    18    9   30 1
    19   10   11 1
    20   10   17 1
    21   10   38 1
    22   11   12 ar
    23   11   16 ar
    24   12   13 ar
    25   12   39 1
    26   13   14 ar
    27   13   40 1
    28   14   15 ar
    29   14   41 1
    30   15   16 ar
    31   15   26 1
    32   16   42 1
    33   17   18 1
    34   17   43 1
    35   17   44 1
    36   18   45 1
    37   18   46 1
    38   18   47 1
    39   19   20 1
    40   19   26 1
    41   19   31 2
    42   20   27 1
    43   20   48 1
    44   20   49 1
    45   21   27 1
    46   21   32 2
    47   21   33 1
    48   22   23 1
    49   22   24 1
    50   22   25 1
    51   22   33 1
    52   23   50 1
    53   23   51 1
    54   23   52 1
    55   24   53 1
    56   24   54 1
    57   24   55 1
    58   25   56 1
    59   25   57 1
    60   25   58 1
    61   26   59 1
    62   27   60 1
    63   27   62 1
    64   30   61 1
@<TRIPOS>SUBSTRUCTURE
     1 U04         1 TEMP              0 ****  ****    0 ROOT
