@<TRIPOS>MOLECULE
U05
   36    38     1     0     0
SMALL
bcc


@<TRIPOS>ATOM
      1 N1           0.0000     0.0000     0.0000 nb         1 U05      -0.599000
      2 C2           1.3190     0.0000     0.0000 ca         1 U05       0.446200
      3 C3           2.0350     0.0000     1.1830 ca         1 U05      -0.246300
      4 C4           1.3570     0.0250     2.3890 ca         1 U05       0.013000
      5 C4A         -0.0430     0.0470     2.3640 ca         1 U05      -0.290900
      6 C5          -0.8000     0.1280     3.6160 c          1 U05       0.640100
      7 O13         -0.3510     0.8440     4.4890 o          1 U05      -0.666500
      8 N6          -1.9270    -0.5130     3.8820 n          1 U05       0.036000
      9 C12         -2.5260    -0.2610     5.1940 c3         1 U05       0.045300
     10 C6A         -2.6020    -1.3920     3.0560 ca         1 U05      -0.010400
     11 C7          -3.2120    -2.5140     3.6250 ca         1 U05      -0.165000
     12 C8          -3.9570    -3.3610     2.8630 ca         1 U05       0.035000
     13 C9          -4.1260    -3.1110     1.4880 ca         1 U05      -0.521200
     14 N           -4.8830    -3.9250     0.7420 no         1 U05       1.098200
     15 O1          -5.4290    -4.8870     1.2510 o          1 U05      -0.482000
     16 O2          -5.0250    -3.7040    -0.4480 o          1 U05      -0.482000
     17 C10         -3.4910    -1.9980     0.9040 ca         1 U05       0.029000
     18 C11         -2.7260    -1.1560     1.6850 ca         1 U05      -0.013400
     19 N11         -2.0780    -0.0720     1.0800 na         1 U05      -0.378700
     20 C14         -2.8530     0.9740     0.4060 c3         1 U05       0.181800
     21 C15         -3.2030     2.0750     1.4090 c3         1 U05      -0.025100
     22 C1A         -0.6980    -0.0030     1.1220 ca         1 U05       0.536200
     23 H2           1.8510    -0.0200    -0.9440 h4         1 U05      -0.017900
     24 H3           3.1180     0.0000     1.1660 ha         1 U05       0.121000
     25 H4           1.8950     0.0260     3.3290 ha         1 U05       0.125000
     26 H121        -2.0590    -0.9020     5.9330 h1         1 U05       0.027367
     27 H122        -3.5880    -0.4720     5.1530 h1         1 U05       0.027367
     28 H123        -2.3730     0.7760     5.4670 h1         1 U05       0.027367
     29 H7          -3.0870    -2.7130     4.6830 ha         1 U05       0.130000
     30 H8          -4.4170    -4.2320     3.3140 ha         1 U05       0.140000
     31 H10         -3.6140    -1.7950    -0.1530 ha         1 U05       0.150000
     32 H141        -2.2650     1.3940    -0.4010 h1         1 U05       0.029700
     33 H142        -3.7640     0.5470     0.0060 h1         1 U05       0.029700
     34 H151        -3.8600     1.6740     2.1710 hc         1 U05       0.010367
     35 H152        -3.7010     2.8880     0.8940 hc         1 U05       0.010367
     36 H153        -2.2950     2.4440     1.8720 hc         1 U05       0.010367
@<TRIPOS>BOND
     1     1     2 ar  
     2     1    22 ar  
     3     2     3 ar  
     4     2    23 1   
     5     3     4 ar  
     6     3    24 1   
     7     4     5 ar  
     8     4    25 1   
     9     5     6 1   
    10     5    22 ar  
    11     6     7 2   
    12     6     8 1   
    13     8     9 1   
    14     8    10 1   
    15     9    26 1   
    16     9    27 1   
    17     9    28 1   
    18    10    11 ar  
    19    10    18 ar  
    20    11    12 ar  
    21    11    29 1   
    22    12    13 ar  
    23    12    30 1   
    24    13    14 1   
    25    13    17 ar  
    26    14    15 1   
    27    14    16 1   
    28    17    18 ar  
    29    17    31 1   
    30    18    19 1   
    31    19    20 1   
    32    19    22 1   
    33    20    21 1   
    34    20    32 1   
    35    20    33 1   
    36    21    34 1   
    37    21    35 1   
    38    21    36 1   
@<TRIPOS>SUBSTRUCTURE
     1 U05         1 TEMP              0 ****  ****    0 ROOT
