@<TRIPOS>MOLECULE
U06
   51    53     1     0     0
SMALL
bcc


@<TRIPOS>ATOM
      1 C4           0.0000     0.0000     0.0000 ca         1 U06       0.546200
      2 C5           1.4090     0.0000     0.0000 ca         1 U06      -0.298600
      3 C6           2.0680     0.0000     1.2300 ca         1 U06       0.502600
      4 N1           1.3520    -0.0010     2.3430 nb         1 U06      -0.738000
      5 N3          -0.6420     0.0000     1.1620 nb         1 U06      -0.778000
      6 CAA          4.0840     1.4410     1.3110 c3         1 U06       0.019900
      7 CAB          3.5740    -0.0010     1.2910 c3         1 U06      -0.088700
      8 C2           0.0280    -0.0010     2.3060 ca         1 U06       0.745900
      9 NAF         -0.6770    -0.0010     3.4950 nv         1 U06      -0.515500
     10 NAI         -0.7020     0.0060    -1.1910 nv         1 U06      -0.550500
     11 CAK          2.1460     0.0000    -1.2280 cg         1 U06      -0.152000
     12 CAL          2.7450     0.0200    -2.2370 c1         1 U06      -0.139100
     13 CAM          3.2340    -0.0050    -3.8220 c3         1 U06       0.068000
     14 CAN          4.9900     0.2440    -3.2930 ca         1 U06      -0.111300
     15 CAU          5.0820     1.6270    -3.4190 ca         1 U06      -0.105000
     16 CAO          5.5830    -0.8790    -2.9780 ca         1 U06       0.155100
     17 OAP          5.0610    -2.0890    -2.9030 os         1 U06      -0.344900
     18 CAQ          6.0130    -3.2600    -2.5210 c3         1 U06       0.226700
     19 CAR          6.8240    -0.5820    -2.6170 ca         1 U06      -0.181000
     20 CAS          7.4190     0.5710    -2.5580 ca         1 U06      -0.104000
     21 CAT          6.6670     1.8620    -2.9420 cp         1 U06      -0.042000
     22 CAV          7.1780     3.2320    -2.9350 cp         1 U06      -0.012000
     23 CAW          8.5060     3.3040    -2.5210 ca         1 U06      -0.170000
     24 CAX          9.0750     4.6320    -2.4900 ca         1 U06      -0.058000
     25 CAY          8.2470     5.7690    -2.8810 ca         1 U06      -0.124600
     26 CBB          8.9900     7.1510    -2.9790 c          1 U06       0.984200
     27 OBD          9.9020     7.4700    -2.3270 o          1 U06      -0.861300
     28 OBC          8.1610     8.0990    -3.0900 o          1 U06      -0.861300
     29 CAZ          7.2500     5.5220    -3.1700 ca         1 U06      -0.058000
     30 CBA          6.5160     4.2420    -3.2580 ca         1 U06      -0.170000
     31 H1           3.9750     2.0640     0.4320 hc         1 U06       0.006033
     32 H2           3.6840     1.8770     2.2180 hc         1 U06       0.006033
     33 H3           5.1230     1.4300     1.6180 hc         1 U06       0.006033
     34 H4           3.9510    -0.7470     1.9800 hc         1 U06       0.031700
     35 H5           3.7740    -0.3670     0.2910 hc         1 U06       0.031700
     36 H6          -1.6530     0.1570     3.6510 hn         1 U06       0.269800
     37 H7          -0.0770    -0.1300     4.2850 hn         1 U06       0.269800
     38 H8           0.0010     0.0580    -1.9010 hn         1 U06       0.302800
     39 H9          -1.6530     0.2880    -1.0520 hn         1 U06       0.302800
     40 H10          2.7820    -0.9150    -4.1990 hc         1 U06       0.060200
     41 H11          3.4010     0.9860    -4.2250 hc         1 U06       0.060200
     42 H12          4.4900     2.4970    -3.6760 ha         1 U06       0.165000
     43 H13          5.1630    -3.9310    -2.4800 h1         1 U06       0.025033
     44 H14          6.7510    -3.1320    -3.3030 h1         1 U06       0.025033
     45 H15          6.5030    -2.8160    -1.6630 h1         1 U06       0.025033
     46 H16          7.4280    -1.4690    -2.4710 ha         1 U06       0.083000
     47 H17          8.4540     0.8700    -2.4490 ha         1 U06       0.129000
     48 H18          9.1340     2.5940    -1.9960 ha         1 U06       0.108500
     49 H19          9.8680     4.9130    -1.8080 ha         1 U06       0.100000
     50 H21          6.4540     6.2100    -3.4240 ha         1 U06       0.100000
     51 H22          5.4490     4.3480    -3.4140 ha         1 U06       0.108500
@<TRIPOS>BOND
     1     1     2 ar  
     2     1     5 ar  
     3     1    10 1   
     4     2     3 ar  
     5     2    11 1   
     6     3     4 ar  
     7     3     7 1   
     8     4     8 ar  
     9     5     8 ar  
    10     6     7 1   
    11     6    31 1   
    12     6    32 1   
    13     6    33 1   
    14     7    34 1   
    15     7    35 1   
    16     8     9 1   
    17     9    36 1   
    18     9    37 1   
    19    10    38 1   
    20    10    39 1   
    21    11    12 3   
    22    12    13 1   
    23    13    14 1   
    24    13    40 1   
    25    13    41 1   
    26    14    15 ar  
    27    14    16 ar  
    28    15    21 ar  
    29    15    42 1   
    30    16    17 1   
    31    16    19 ar  
    32    17    18 1   
    33    18    43 1   
    34    18    44 1   
    35    18    45 1   
    36    19    20 ar  
    37    19    46 1   
    38    20    21 ar  
    39    20    47 1   
    40    21    22 1   
    41    22    23 ar  
    42    22    30 ar  
    43    23    24 ar  
    44    23    48 1   
    45    24    25 ar  
    46    24    49 1   
    47    25    26 1   
    48    25    29 ar  
    49    26    27 1   
    50    26    28 1   
    51    29    30 ar  
    52    29    50 1   
    53    30    51 1   
@<TRIPOS>SUBSTRUCTURE
     1 U06         1 TEMP              0 ****  ****    0 ROOT
