@<TRIPOS>MOLECULE
molecule
   97    97     1     0     0
SMALL
bcc


@<TRIPOS>ATOM
      1 C1           0.0000     0.0000     0.0000 c3         1 U0E      -0.168100
      2 C2           1.5060     0.0000     0.0000 c          1 U0E       0.664100
      3 C3           3.6450     0.0030     1.1670 c3         1 U0E       0.144700
      4 C4           4.1520     0.8790     2.3150 c3         1 U0E      -0.232400
      5 C5           3.6390     2.3080     2.1320 c3         1 U0E       0.030300
      6 C6           4.1470     3.1830     3.2800 c3         1 U0E      -0.164900
      7 C7           3.6340     4.6130     3.0970 c3         1 U0E      -0.060400
      8 C8           4.1420     5.1700     1.7680 c3         1 U0E      -0.078400
      9 C9           3.6350     4.2960     0.6200 c3         1 U0E      -0.060400
     10 C10          4.1480     2.8670     0.8030 c3         1 U0E      -0.164900
     11 C11          4.1580    -1.4260     1.3500 c3         1 U0E       0.120100
     12 C12          3.6400    -2.3040     0.2090 c3         1 U0E      -0.091400
     13 C13          4.2850    -3.6890     0.2980 c3         1 U0E      -0.118700
     14 C14          3.8040    -4.3940     1.5680 c3         1 U0E      -0.080700
     15 C15          2.2920    -4.6170     1.4870 c3         1 U0E      -0.097600
     16 C16          4.5110    -5.7440     1.7000 c3         1 U0E      -0.097600
     17 C17          3.8930    -4.5030    -0.9080 c          1 U0E       0.673100
     18 C18          4.3180    -6.2870    -2.5110 c3         1 U0E       0.103700
     19 C19          4.7780    -5.6220    -3.8090 c3         1 U0E      -0.226400
     20 C20          4.1360    -4.2390    -3.9290 c3         1 U0E      -0.123400
     21 C21          4.5890    -3.5840    -5.2080 c          1 U0E       0.499100
     22 C22          4.9500    -7.6490    -2.3920 c          1 U0E       0.630100
     23 C23          5.3360    -9.9080    -3.2220 c3         1 U0E       0.103700
     24 C24          6.6750    -9.9010    -3.9140 c          1 U0E       0.459100
     25 C25          4.4290   -10.9510    -3.8770 c3         1 U0E      -0.261400
     26 C26          3.0700   -10.9570    -3.1750 c3         1 U0E      -0.063400
     27 C27          2.1630   -12.0010    -3.8300 c3         1 U0E       0.257800
     28 C28         -0.1240   -12.8690    -3.5760 c2         1 U0E       0.692100
     29 N1           2.1800     0.0000     1.1680 ns         1 U0E      -0.566900
     30 N2           4.7200    -5.4610    -1.3700 ns         1 U0E      -0.582900
     31 N3           4.1460    -2.3510    -5.5270 nz         1 U0E      -0.685400
     32 N4           4.7210    -8.5840    -3.3360 ns         1 U0E      -0.637900
     33 N6           0.8610   -12.0060    -3.1580 nu         1 U0E      -0.874200
     34 N7           0.0990   -13.6810    -4.5720 n2         1 U0E      -0.766100
     35 N8          -1.3460   -12.8750    -2.9450 nz         1 U0E      -0.806600
     36 O1           2.1140     0.0000    -1.0500 o          1 U0E      -0.674100
     37 O2           3.6920    -1.9430     2.5990 oh         1 U0E      -0.594800
     38 O3           2.8360    -4.2960    -1.4620 o          1 U0E      -0.634100
     39 O4           5.3500    -4.1660    -5.9510 o          1 U0E      -0.428100
     40 O6           7.5650   -10.6270    -3.5200 o          1 U0E      -0.350100
     41 H11A        -0.3610     0.9800    -0.2890 hc         1 U0E       0.066700
     42 H12         -0.3610    -0.7400    -0.7040 hc         1 U0E       0.066700
     43 H13A        -0.3610    -0.2400     0.9930 hc         1 U0E       0.066700
     44 H3           4.0040     0.3990     0.2250 h1         1 U0E       0.066700
     45 H41          5.0360     0.6510     2.8990 hc         1 U0E       0.094200
     46 H42          4.5490     1.0450     1.3210 hc         1 U0E       0.094200
     47 H5           2.5560     2.3110     2.1310 hc         1 U0E       0.026700
     48 H61          4.4320     2.7930     4.2500 hc         1 U0E       0.064200
     49 H62          3.0900     2.9500     3.2280 hc         1 U0E       0.064200
     50 H71          2.5510     4.6100     3.0950 hc         1 U0E       0.043200
     51 H72          3.9970     5.2320     3.9090 hc         1 U0E       0.043200
     52 H81          3.7760     6.1820     1.6380 hc         1 U0E       0.051700
     53 H82          5.2250     5.1700     1.7690 hc         1 U0E       0.051700
     54 H91          3.9980     4.6910    -0.3210 hc         1 U0E       0.043200
     55 H92          2.5510     4.2920     0.6220 hc         1 U0E       0.043200
     56 H101         5.2320     2.8710     0.8060 hc         1 U0E       0.064200
     57 H102         3.7870     2.2480    -0.0090 hc         1 U0E       0.064200
     58 H11          5.2410    -1.4240     1.3410 h1         1 U0E       0.030700
     59 H121         3.7980    -1.8390    -0.7560 hc         1 U0E       0.080700
     60 H122         2.6060    -2.2380     0.5250 hc         1 U0E       0.080700
     61 H13          5.3630    -3.5840     0.3290 hc         1 U0E       0.060700
     62 H14          4.0330    -3.7800     2.4300 hc         1 U0E       0.111700
     63 H151         1.9590    -4.1310     0.5780 hc         1 U0E       0.040867
     64 H152         1.8040    -4.1720     2.3460 hc         1 U0E       0.040867
     65 H153         2.0740    -5.6770     1.4420 hc         1 U0E       0.040867
     66 H161         5.4940    -5.6830     1.2490 hc         1 U0E       0.040867
     67 H162         3.9290    -6.5070     1.1970 hc         1 U0E       0.040867
     68 H163         4.6100    -5.9990     2.7480 hc         1 U0E       0.040867
     69 H18          3.2390    -6.3900    -2.5210 h1         1 U0E       0.095700
     70 H191         5.1360    -6.1710    -4.6710 hc         1 U0E       0.086200
     71 H192         3.7460    -5.9390    -3.7260 hc         1 U0E       0.086200
     72 H201         4.4330    -3.6280    -3.0850 hc         1 U0E       0.118200
     73 H202         3.0570    -4.3420    -3.9380 hc         1 U0E       0.118200
     74 H23          5.4720   -10.1540    -2.1750 h1         1 U0E       0.147700
     75 H251         4.7980   -11.8050    -4.4320 hc         1 U0E       0.127700
     76 H252         4.7910   -11.1360    -2.8730 hc         1 U0E       0.127700
     77 H261         2.6150    -9.9780    -3.2600 hc         1 U0E       0.056200
     78 H262         3.2060   -11.2030    -2.1290 hc         1 U0E       0.056200
     79 H271         2.0280   -11.7550    -4.8770 h1         1 U0E       0.081700
     80 H272         2.6180   -12.9800    -3.7450 h1         1 U0E       0.081700
     81 HN1          1.6800     0.0460     2.0340 hn         1 U0E       0.341500
     82 HN2          5.6190    -5.5910    -0.9500 hn         1 U0E       0.356500
     83 HN31         3.9480    -2.3110    -6.5070 hn         1 U0E       0.491133
     84 HN32         4.8490    -1.6750    -5.3010 hn         1 U0E       0.491133
     85 HN4          4.1290    -8.3730    -4.1150 hn         1 U0E       0.326500
     86 HN51         7.5340    -9.5210    -5.5970 hn         1 U0E       0.483133
     87 HN52         6.0180    -8.9300    -5.4440 hn         1 U0E       0.483133
     88 HN6          0.6890   -11.3830    -2.3940 hn         1 U0E       0.455800
     89 HN7         -0.6170   -14.3090    -4.8780 hn         1 U0E       0.458400
     90 HN81        -1.5940   -11.9400    -2.6870 hn         1 U0E       0.474800
     91 HN82        -2.0400   -13.2440    -3.5650 hn         1 U0E       0.474800
     92 HO2          4.3730    -1.8620     3.2460 ho         1 U0E       0.418000
     93 N5           6.8840    -9.0900    -4.9690 nz         1 U0E      -0.677400
     94 H33          3.3130    -2.1510    -5.0090 hn         1 U0E       0.491133
     95 H83         -1.2960   -13.4450    -2.1240 hn         1 U0E       0.474800
     96 H53          7.2510    -8.2150    -4.6500 hn         1 U0E       0.483133
     97 O5           5.6680    -7.9050    -1.4480 o          1 U0E      -0.524100
@<TRIPOS>BOND
     1     1     2 1
     2     1    41 1
     3     1    42 1
     4     1    43 1
     5     2    29 1
     6     2    36 2
     7     3     4 1
     8     3    11 1
     9     3    29 1
    10     3    44 1
    11     4     5 1
    12     4    45 1
    13     4    46 1
    14     5     6 1
    15     5    10 1
    16     5    47 1
    17     6     7 1
    18     6    48 1
    19     6    49 1
    20     7     8 1
    21     7    50 1
    22     7    51 1
    23     8     9 1
    24     8    52 1
    25     8    53 1
    26     9    10 1
    27     9    54 1
    28     9    55 1
    29    10    56 1
    30    10    57 1
    31    11    12 1
    32    11    37 1
    33    11    58 1
    34    12    13 1
    35    12    59 1
    36    12    60 1
    37    13    14 1
    38    13    17 1
    39    13    61 1
    40    14    15 1
    41    14    16 1
    42    14    62 1
    43    15    63 1
    44    15    64 1
    45    15    65 1
    46    16    66 1
    47    16    67 1
    48    16    68 1
    49    17    30 1
    50    17    38 2
    51    18    19 1
    52    18    22 1
    53    18    30 1
    54    18    69 1
    55    19    20 1
    56    19    70 1
    57    19    71 1
    58    20    21 1
    59    20    72 1
    60    20    73 1
    61    21    31 1
    62    21    39 2
    63    22    32 1
    64    22    97 2
    65    23    24 1
    66    23    25 1
    67    23    32 1
    68    23    74 1
    69    24    93 1
    70    24    40 2
    71    25    26 1
    72    25    75 1
    73    25    76 1
    74    26    27 1
    75    26    77 1
    76    26    78 1
    77    27    33 1
    78    27    79 1
    79    27    80 1
    80    28    33 1
    81    28    34 2
    82    28    35 1
    83    29    81 1
    84    30    82 1
    85    31    83 1
    86    31    84 1
    87    32    85 1
    88    93    86 1
    89    93    87 1
    90    33    88 1
    91    34    89 1
    92    35    90 1
    93    35    91 1
    94    37    92 1
    95    94    31 1
    96    95    35 1
    97    96    93 1
@<TRIPOS>SUBSTRUCTURE
     1 U0E         1 TEMP              0 ****  ****    0 ROOT
