@<TRIPOS>MOLECULE
U0E
   97    98     1     0     0
SMALL
bcc


@<TRIPOS>ATOM
      1 C1           0.0000     0.0000     0.0000 c3         1 U0E      -0.132000
      2 C2           1.5060     0.0000     0.0000 c2         1 U0E       0.238000
      3 C3           3.6450     0.0030     1.1670 c3         1 U0E      -0.034000
      4 C4           4.1520     0.8790     2.3150 c3         1 U0E      -0.287000
      5 C5           3.6390     2.3080     2.1320 c3         1 U0E      -0.060000
      6 C6           4.1470     3.1830     3.2800 c3         1 U0E      -0.117000
      7 C7           3.6340     4.6130     3.0970 c3         1 U0E      -0.093500
      8 C8           4.1420     5.1700     1.7680 c3         1 U0E      -0.106000
      9 C9           3.6350     4.2960     0.6200 c3         1 U0E      -0.093500
     10 C10          4.1480     2.8670     0.8030 c3         1 U0E      -0.117000
     11 C11          4.1580    -1.4260     1.3500 c3         1 U0E       0.137000
     12 C12          3.6400    -2.3040     0.2090 c3         1 U0E      -0.227000
     13 C13          4.2850    -3.6890     0.2980 c3         1 U0E      -0.051000
     14 C14          3.8040    -4.3940     1.5680 c3         1 U0E      -0.115000
     15 C15          2.2920    -4.6170     1.4870 c3         1 U0E      -0.129000
     16 C16          4.5110    -5.7440     1.7000 c3         1 U0E      -0.129000
     17 C17          3.8930    -4.5030    -0.9080 c2         1 U0E       0.239000
     18 C18          4.3180    -6.2870    -2.5110 c3         1 U0E       0.009000
     19 C19          4.7780    -5.6220    -3.8090 c3         1 U0E      -0.288000
     20 C20          4.1360    -4.2390    -3.9290 c3         1 U0E      -0.082000
     21 C21          4.5890    -3.5840    -5.2080 c2         1 U0E       0.047000
     22 C22          4.9500    -7.6490    -2.3920 c2         1 U0E       0.201000
     23 C23          5.3360    -9.9080    -3.2220 DU         1 U0E      -0.165000
     24 C24          6.6750    -9.9010    -3.9140 c2         1 U0E       0.021000
     25 C25          4.4290   -10.9510    -3.8770 c3         1 U0E      -0.259000
     26 C26          3.0700   -10.9570    -3.1750 c3         1 U0E      -0.145000
     27 C27          2.1630   -12.0010    -3.8300 c3         1 U0E      -0.039000
     28 C28         -0.1240   -12.8690    -3.5760 c2         1 U0E      -0.349000
     29 N1           2.1800     0.0000     1.1680 ns         1 U0E       0.033000
     30 N2           4.7200    -5.4610    -1.3700 ns         1 U0E      -0.026000
     31 N3           4.1460    -2.3510    -5.5270 nz         1 U0E       0.815000
     32 N4           4.7210    -8.5840    -3.3360 ns         1 U0E      -0.122000
     33 N6           0.8610   -12.0060    -3.1580 n7         1 U0E       0.000000
     34 N7           0.0990   -13.6810    -4.5720 n2         1 U0E      -0.037000
     35 N8          -1.3460   -12.8750    -2.9450 nz         1 U0E       0.965000
     36 O1           2.1140     0.0000    -1.0500 o          1 U0E      -0.494000
     37 O2           3.6920    -1.9430     2.5990 oh         1 U0E      -0.302000
     38 O3           2.8360    -4.2960    -1.4620 o          1 U0E      -0.419000
     39 O4           5.3500    -4.1660    -5.9510 o          1 U0E      -0.194000
     40 O6           7.5650   -10.6270    -3.5200 o          1 U0E      -0.088000
     41 H11A        -0.3610    -0.5430     0.8650 hc         1 U0E       0.067000
     42 H12         -0.3610    -0.4780    -0.9030 hc         1 U0E       0.067000
     43 H13A        -0.3610     1.0210     0.0370 hc         1 U0E       0.067000
     44 H3           4.0040     0.3990     0.2250 h1         1 U0E       0.088000
     45 H41          5.0360     0.6520     2.8990 hc         1 U0E       0.107500
     46 H42          4.5490     1.0450     1.3210 hc         1 U0E       0.107500
     47 H5           2.5560     2.3110     2.1310 hc         1 U0E       0.069000
     48 H61          3.9050     2.7650     4.2500 hc         1 U0E       0.058500
     49 H62          5.1870     3.0470     3.0110 hc         1 U0E       0.058500
     50 H71          3.9970     5.2320     3.9090 hc         1 U0E       0.059250
     51 H72          2.5510     4.6100     3.0950 hc         1 U0E       0.059250
     52 H81          3.7760     6.1820     1.6380 hc         1 U0E       0.061000
     53 H82          5.2250     5.1700     1.7690 hc         1 U0E       0.061000
     54 H91          2.5510     4.2920     0.6230 hc         1 U0E       0.059250
     55 H92          3.9980     4.6910    -0.3210 hc         1 U0E       0.059250
     56 H101         5.2320     2.8710     0.8060 hc         1 U0E       0.058500
     57 H102         3.7870     2.2480    -0.0100 hc         1 U0E       0.058500
     58 H11          5.2410    -1.4240     1.3410 h1         1 U0E       0.021000
     59 H121         3.3540    -1.8910    -0.7500 hc         1 U0E       0.098000
     60 H122         4.6890    -2.0400     0.2720 hc         1 U0E       0.098000
     61 H13          5.3630    -3.5840     0.3290 hc         1 U0E       0.058000
     62 H14          4.0330    -3.7800     2.4300 hc         1 U0E       0.132000
     63 H151         1.9590    -4.1310     0.5780 hc         1 U0E       0.050500
     64 H152         1.8040    -4.1720     2.3460 hc         1 U0E       0.050500
     65 H153         2.0740    -5.6770     1.4420 hc         1 U0E       0.050500
     66 H161         4.4260    -6.0980     2.7200 hc         1 U0E       0.050500
     67 H162         4.0500    -6.4600     1.0300 hc         1 U0E       0.050500
     68 H163         5.5570    -5.6310     1.4430 hc         1 U0E       0.050500
     69 H18          3.2390    -6.3900    -2.5210 h1         1 U0E       0.108000
     70 H191         5.1360    -6.1710    -4.6710 hc         1 U0E       0.101500
     71 H192         3.7460    -5.9390    -3.7260 hc         1 U0E       0.101500
     72 H201         4.4330    -3.6280    -3.0850 hc         1 U0E       0.121000
     73 H202         3.0570    -4.3420    -3.9380 hc         1 U0E       0.121000
     74 H23          5.4720   -10.1540    -2.1750 ha         1 U0E       0.172000
     75 H251         4.3480   -10.2160    -4.6680 hc         1 U0E       0.104000
     76 H252         4.8620   -10.9460    -2.8840 DU         1 U0E       0.303000
     77 H261         2.6150    -9.9780    -3.2600 hc         1 U0E       0.063500
     78 H262         3.2060   -11.2030    -2.1290 hc         1 U0E       0.063500
     79 H271         2.0280   -11.7550    -4.8770 h1         1 U0E       0.079500
     80 H272         2.6180   -12.9800    -3.7450 h1         1 U0E       0.079500
     81 HN1          1.6800     0.0170     2.0350 hn         1 U0E       0.117000
     82 HN2          5.6290    -5.5750    -0.9660 hn         1 U0E       0.136000
     83 HN31         3.2060    -2.2400    -5.2030 hn         1 U0E       0.054667
     84 HN32         4.7320    -1.6640    -5.0940 hn         1 U0E       0.054667
     85 HN4          4.1180    -8.3770    -4.1080 hn         1 U0E       0.114000
     86 HN51         7.5900    -9.4850    -5.5590 hn         1 U0E       0.045667
     87 HN52         7.1850    -8.1920    -4.6450 hn         1 U0E       0.045667
     88 HN6          0.6910   -11.3850    -2.3920 hn         1 U0E       0.102000
     89 HN7          0.9880   -13.6770    -5.0330 hn         1 U0E       0.135000
     90 HN81        -1.2170   -13.0550    -1.9690 hn         1 U0E       0.024333
     91 HN82        -1.9240   -13.5890    -3.3430 hn         1 U0E       0.024333
     92 HO2          4.3250    -1.7550     3.2730 ho         1 U0E       0.202000
     93 N5           6.8840    -9.0900    -4.9690 nz         1 U0E       0.827000
     94 H33          4.1730    -2.2340    -6.5210 hn         1 U0E       0.054667
     95 H83         -1.7880   -11.9850    -3.0650 hn         1 U0E       0.024333
     96 H53          6.0360    -8.9980    -5.4920 hn         1 U0E       0.045667
     97 O5           5.6680    -7.9050    -1.4480 o          1 U0E      -0.307000
@<TRIPOS>BOND
     1     1     2 1   
     2     1    41 1   
     3     1    42 1   
     4     1    43 1   
     5     2    29 1   
     6     2    36 1   
     7     3     4 1   
     8     3    11 1   
     9     3    29 1   
    10     3    44 1   
    11     4     5 1   
    12     4    45 1   
    13     4    46 1   
    14     5     6 1   
    15     5    10 1   
    16     5    47 1   
    17     6     7 1   
    18     6    48 1   
    19     6    49 1   
    20     7     8 1   
    21     7    50 1   
    22     7    51 1   
    23     8     9 1   
    24     8    52 1   
    25     8    53 1   
    26     9    10 1   
    27     9    54 1   
    28     9    55 1   
    29    10    56 1   
    30    10    57 1   
    31    11    12 1   
    32    11    37 1   
    33    11    58 1   
    34    12    13 1   
    35    12    59 1   
    36    12    60 1   
    37    13    14 1   
    38    13    17 1   
    39    13    61 1   
    40    14    15 1   
    41    14    16 1   
    42    14    62 1   
    43    15    63 1   
    44    15    64 1   
    45    15    65 1   
    46    16    66 1   
    47    16    67 1   
    48    16    68 1   
    49    17    30 1   
    50    17    38 1   
    51    18    19 1   
    52    18    22 1   
    53    18    30 1   
    54    18    69 1   
    55    19    20 1   
    56    19    70 1   
    57    19    71 1   
    58    20    21 1   
    59    20    72 1   
    60    20    73 1   
    61    21    31 1   
    62    21    39 1   
    63    22    32 1   
    64    22    97 1   
    65    23    24 1   
    66    23    25 1   
    67    23    32 1   
    68    23    74 1   
    69    23    76 1   
    70    24    40 1   
    71    24    93 1   
    72    25    26 1   
    73    25    75 1   
    74    25    76 1   
    75    26    27 1   
    76    26    77 1   
    77    26    78 1   
    78    27    33 1   
    79    27    79 1   
    80    27    80 1   
    81    28    33 1   
    82    28    34 1   
    83    28    35 1   
    84    29    81 1   
    85    30    82 1   
    86    31    83 1   
    87    31    84 1   
    88    31    94 1   
    89    32    85 1   
    90    33    88 1   
    91    34    89 1   
    92    35    90 1   
    93    35    91 1   
    94    35    95 1   
    95    37    92 1   
    96    86    93 1   
    97    87    93 1   
    98    93    96 1   
@<TRIPOS>SUBSTRUCTURE
     1 U0E         1 TEMP              0 ****  ****    0 ROOT
