@<TRIPOS>MOLECULE
U11
   48    48     1     0     0
SMALL
bcc


@<TRIPOS>ATOM
      1 F29          0.0000     0.0000     0.0000 f          1 U11      -0.195300
      2 C9           1.3990     0.0000     0.0000 c3         1 U11       0.640200
      3 F30          1.8640     0.0000     1.3200 f          1 U11      -0.195300
      4 F31          1.8650     1.1410    -0.6600 f          1 U11      -0.195300
      5 C5           1.9010    -1.2320    -0.7090 ca         1 U11      -0.163300
      6 C2           3.1090    -1.1980    -1.3810 ca         1 U11      -0.016500
      7 C4           3.5710    -2.3280    -2.0290 ca         1 U11      -0.082000
      8 C6           1.1530    -2.3940    -0.6890 ca         1 U11      -0.016500
      9 C3           1.6130    -3.5230    -1.3410 ca         1 U11      -0.082000
     10 C7           2.8200    -3.4900    -2.0130 ca         1 U11      -0.157300
     11 C11          3.3230    -4.7200    -2.7230 c3         1 U11       0.010800
     12 N24          3.9320    -4.3320    -4.0030 nz         1 U11       0.061400
     13 C23          4.3670    -5.4220    -1.8530 c3         1 U11       0.110100
     14 O27          5.4020    -4.4970    -1.5140 oh         1 U11      -0.574800
     15 C25          4.9570    -6.5810    -2.6130 c          1 U11       0.478100
     16 O31          6.1300    -6.5700    -2.9210 o          1 U11      -0.598100
     17 N32          4.1810    -7.6310    -2.9500 ns         1 U11      -0.157900
     18 C33          4.7560    -8.7580    -3.6880 c3         1 U11      -0.060300
     19 C37          5.3990    -9.7380    -2.7050 c3         1 U11      -0.007100
     20 C36          3.6670    -9.4620    -4.4580 c          1 U11       0.561100
     21 O41          2.5240    -9.0600    -4.3950 o          1 U11      -0.679100
     22 N42          3.9630   -10.5360    -5.2150 ns         1 U11      -0.151900
     23 C43          2.9050   -11.2190    -5.9640 c3         1 U11       0.000000
     24 C47          3.4950   -12.3790    -6.7230 c          1 U11       0.695100
     25 O60          4.6790   -12.6110    -6.6480 o          1 U11      -0.590000
     26 O61          2.7060   -13.1540    -7.4830 os         1 U11      -0.411900
     27 C62          3.2750   -14.2720    -8.2160 c3         1 U11       0.281700
     28 H2           3.6970    -0.2880    -1.3930 ha         1 U11       0.139000
     29 H4           4.5180    -2.3020    -2.5550 ha         1 U11       0.115000
     30 H6           0.2070    -2.4200    -0.1620 ha         1 U11       0.139000
     31 H3           1.0260    -4.4340    -1.3270 ha         1 U11       0.115000
     32 H11          2.4940    -5.3930    -2.9070 hx         1 U11       0.093700
     33 H241         3.9810    -5.1310    -4.6040 hn         1 U11       0.236133
     34 H242         3.3750    -3.6220    -4.4360 hn         1 U11       0.236133
     35 H23          3.8960    -5.7860    -0.9480 h1         1 U11       0.059700
     36 HO27         5.8410    -4.7900    -0.7320 ho         1 U11       0.446000
     37 HN32         3.2270    -7.6630    -2.6510 hn         1 U11       0.198500
     38 H33          5.5070    -8.3930    -4.3780 h1         1 U11       0.067700
     39 H371         6.2950   -10.1560    -3.1460 hc         1 U11       0.025033
     40 H372         5.6560    -9.2160    -1.7910 hc         1 U11       0.025033
     41 H373         4.7010   -10.5350    -2.4810 hc         1 U11       0.025033
     42 HN42         4.9080   -10.8570    -5.2800 hn         1 U11       0.210500
     43 H431         2.1530   -11.5840    -5.2740 h1         1 U11       0.053200
     44 H432         2.4500   -10.5250    -6.6600 h1         1 U11       0.053200
     45 H621         2.4920   -14.7760    -8.7700 h1         1 U11       0.007367
     46 H622         4.0270   -13.9070    -8.9040 h1         1 U11       0.007367
     47 H623         3.7290   -14.9660    -7.5190 h1         1 U11       0.007367
     48 H243         4.8520    -3.9740    -3.8400 hn         1 U11       0.236133
@<TRIPOS>BOND
     1     1     2 1   
     2     2     3 1   
     3     2     4 1   
     4     2     5 1   
     5     5     6 ar  
     6     5     8 ar  
     7     6     7 ar  
     8     6    28 1   
     9     7    10 ar  
    10     7    29 1   
    11     8     9 ar  
    12     8    30 1   
    13     9    10 ar  
    14     9    31 1   
    15    10    11 1   
    16    11    12 1   
    17    11    13 1   
    18    11    32 1   
    19    12    33 1   
    20    12    34 1   
    21    12    48 1   
    22    13    14 1   
    23    13    15 1   
    24    13    35 1   
    25    14    36 1   
    26    15    16 2   
    27    15    17 1   
    28    17    18 1   
    29    17    37 1   
    30    18    19 1   
    31    18    20 1   
    32    18    38 1   
    33    19    39 1   
    34    19    40 1   
    35    19    41 1   
    36    20    21 2   
    37    20    22 1   
    38    22    23 1   
    39    22    42 1   
    40    23    24 1   
    41    23    43 1   
    42    23    44 1   
    43    24    25 2   
    44    24    26 1   
    45    26    27 1   
    46    27    45 1   
    47    27    46 1   
    48    27    47 1   
@<TRIPOS>SUBSTRUCTURE
     1 U11         1 TEMP              0 ****  ****    0 ROOT
