@<TRIPOS>MOLECULE
molecule
   27    28     1     0     0
SMALL
bcc


@<TRIPOS>ATOM
      1 F3           0.0000     0.0000     0.0000 f          1 U12      -0.208633
      2 C10          1.3990     0.0000     0.0000 c3         1 U12       0.680200
      3 F1           1.8650     0.0000     1.3190 f          1 U12      -0.208633
      4 F2           1.8650     1.1440    -0.6590 f          1 U12      -0.208633
      5 C8           1.9020    -1.2290    -0.7110 ca         1 U12      -0.196300
      6 C5           2.6980    -2.1390    -0.0380 ca         1 U12       0.014000
      7 C9           3.1640    -3.2720    -0.6830 ca         1 U12      -0.145000
      8 C6           2.8380    -3.5010    -2.0030 ca         1 U12      -0.026000
      9 C7           1.5720    -1.4420    -2.0340 ca         1 U12       0.011000
     10 C4           2.0340    -2.5860    -2.6900 ca         1 U12       0.043400
     11 N6           1.7070    -2.8080    -3.9970 ne         1 U12      -0.186400
     12 N3           2.1400    -3.8610    -4.6020 nf         1 U12      -0.238600
     13 C1           1.8180    -4.0790    -5.8910 cd         1 U12       0.080000
     14 C3           2.2160    -5.2280    -6.7540 cd         1 U12       0.790600
     15 N5           2.9560    -6.2440    -6.4230 n2         1 U12      -0.852100
     16 N4           1.6340    -4.9810    -7.9750 nd         1 U12      -0.232300
     17 N1           0.9700    -3.8860    -7.9340 nc         1 U12      -0.087600
     18 C2           1.0360    -3.2830    -6.7230 cc         1 U12      -0.098400
     19 N2           0.4300    -2.0920    -6.3730 nz         1 U12      -0.609400
     20 H5           2.9580    -1.9650     0.9990 ha         1 U12       0.182000
     21 H9           3.7870    -3.9790    -0.1490 ha         1 U12       0.174000
     22 H6           3.2020    -4.3890    -2.5050 ha         1 U12       0.179000
     23 H7           0.9490    -0.7290    -2.5600 ha         1 U12       0.156000
     24 HN52         3.9480    -6.2020    -6.5450 hn         1 U12       0.592400
     25 HN21         1.1280    -1.4330    -6.0880 hn         1 U12       0.466133
     26 HN22        -0.2070    -2.2510    -5.6170 hn         1 U12       0.466133
     27 H23         -0.0710    -1.7280    -7.1590 hn         1 U12       0.466133
@<TRIPOS>BOND
     1     1     2 1
     2     2     3 1
     3     2     4 1
     4     2     5 1
     5     5     6 ar
     6     5     9 ar
     7     6     7 ar
     8     6    20 1
     9     7     8 ar
    10     7    21 1
    11     8    10 ar
    12     8    22 1
    13     9    10 ar
    14     9    23 1
    15    10    11 1
    16    11    12 2
    17    12    13 1
    18    13    14 1
    19    13    18 2
    20    14    15 2
    21    14    16 1
    22    15    24 1
    23    16    17 2
    24    17    18 1
    25    18    19 1
    26    19    25 1
    27    19    26 1
    28    27    19 1
@<TRIPOS>SUBSTRUCTURE
     1 U12         1 TEMP              0 ****  ****    0 ROOT
