@<TRIPOS>MOLECULE
U13
   24    25     1     0     0
SMALL
bcc


@<TRIPOS>ATOM
      1 F7           0.0000     0.0000     0.0000 f          1 U13      -0.097900
      2 C3           1.3520     0.0000     0.0000 ca         1 U13       0.221900
      3 C6           2.0410     0.0000     1.2030 ca         1 U13      -0.148500
      4 C2           3.4200    -0.0050     1.2100 ca         1 U13       0.018000
      5 C5           4.1220     0.0010     0.0020 ca         1 U13      -0.027600
      6 C4           3.4200     0.0010    -1.2090 ca         1 U13       0.018000
      7 C1           2.0420     0.0000    -1.2020 ca         1 U13      -0.148500
      8 N9           5.4870     0.0010     0.0010 ne         1 U13      -0.107400
      9 N13          6.1320     0.0010     1.1190 nf         1 U13      -0.217600
     10 C14          7.4790     0.0010     1.1190 cd         1 U13       0.160000
     11 C19          8.3340     0.0010     0.0220 cc         1 U13      -0.360400
     12 N16          7.9510     0.0010    -1.3060 nz         1 U13       0.357600
     13 N20          9.6060    -0.0050     0.4840 nc         1 U13      -0.071600
     14 N17          9.6630     0.0010     1.7650 nd         1 U13      -0.211300
     15 C15          8.3950     0.0010     2.2960 cd         1 U13       0.424600
     16 N18          8.0650     0.0010     3.5530 n2         1 U13      -0.310100
     17 H6           1.4960     0.0040     2.1390 ha         1 U13       0.145000
     18 H2           3.9560    -0.0790     2.1480 ha         1 U13       0.124500
     19 H4           3.9570     0.0780    -2.1470 ha         1 U13       0.124500
     20 H1           1.4970    -0.0010    -2.1380 ha         1 U13       0.145000
     21 H161         8.7650     0.0000    -1.8880 hn         1 U13       0.203133
     22 H162         7.4060     0.8190    -1.4960 hn         1 U13       0.203133
     23 H182         8.7760     0.0010     4.2570 hn         1 U13       0.352400
     24 H163         7.4040    -0.8160    -1.4960 hn         1 U13       0.203133
@<TRIPOS>BOND
     1     1     2 1   
     2     2     3 ar  
     3     2     7 ar  
     4     3     4 ar  
     5     3    17 1   
     6     4     5 ar  
     7     4    18 1   
     8     5     6 ar  
     9     5     8 1   
    10     6     7 ar  
    11     6    19 1   
    12     7    20 1   
    13     8     9 2   
    14     9    10 1   
    15    10    11 2   
    16    10    15 1   
    17    11    12 1   
    18    11    13 1   
    19    12    21 1   
    20    12    22 1   
    21    12    24 1   
    22    13    14 2   
    23    14    15 1   
    24    15    16 2   
    25    16    23 1   
@<TRIPOS>SUBSTRUCTURE
     1 U13         1 TEMP              0 ****  ****    0 ROOT
