@<TRIPOS>MOLECULE
U14
   26    27     1     0     0
SMALL
bcc


@<TRIPOS>ATOM
      1 O2           0.0000     0.0000     0.0000 o          1 U14      -0.847300
      2 C4           1.2150     0.0000     0.0000 c          1 U14       0.960200
      3 O1           1.8880     0.0000     1.1670 o          1 U14      -0.847300
      4 C9           1.9530    -0.0010    -1.2800 ca         1 U14      -0.135600
      5 C6           3.3510    -0.0010    -1.2820 ca         1 U14       0.098000
      6 C10          4.0440    -0.0030    -2.4770 ca         1 U14      -0.163000
      7 C7           3.3630    -0.0050    -3.6770 ca         1 U14      -0.023000
      8 C8           1.2580     0.0040    -2.4870 ca         1 U14       0.036000
      9 C5           1.9640    -0.0040    -3.6910 ca         1 U14      -0.030600
     10 N6           1.2910    -0.0060    -4.8800 ne         1 U14      -0.073400
     11 N5           1.9460    -0.0090    -5.9910 nf         1 U14      -0.290600
     12 C2           1.2810    -0.0110    -7.1640 cd         1 U14       0.209000
     13 C3          -0.0950    -0.0110    -7.3670 cc         1 U14      -0.451400
     14 N4          -1.0610    -0.0090    -6.3800 nz         1 U14       0.379600
     15 N2          -0.3190    -0.0180    -8.7030 nc         1 U14      -0.049600
     16 C1           1.8540    -0.0140    -8.5400 cd         1 U14       0.449600
     17 N3           0.7680    -0.0150    -9.3830 nd         1 U14      -0.284300
     18 N1           3.1100    -0.0150    -8.8730 n2         1 U14      -0.374100
     19 H6           3.8920     0.0000    -0.3440 ha         1 U14       0.147000
     20 H10          5.1270    -0.0040    -2.4710 ha         1 U14       0.118000
     21 H7           3.9140    -0.0090    -4.6100 ha         1 U14       0.125000
     22 H8           0.1750     0.0050    -2.4920 ha         1 U14       0.127000
     23 HN41        -0.9570    -0.8250    -5.8100 hn         1 U14       0.194133
     24 HN42        -0.9570     0.8090    -5.8130 hn         1 U14       0.194133
     25 HN12         3.3720    -0.0170    -9.8390 hn         1 U14       0.340400
     26 H43         -1.9690    -0.0090    -6.8010 hn         1 U14       0.194133
@<TRIPOS>BOND
     1     1     2 1   
     2     2     3 1   
     3     2     4 1   
     4     4     5 ar  
     5     4     8 ar  
     6     5     6 ar  
     7     5    19 1   
     8     6     7 ar  
     9     6    20 1   
    10     7     9 ar  
    11     7    21 1   
    12     8     9 ar  
    13     8    22 1   
    14     9    10 1   
    15    10    11 2   
    16    11    12 1   
    17    12    13 2   
    18    12    16 1   
    19    13    14 1   
    20    13    15 1   
    21    14    23 1   
    22    14    24 1   
    23    14    26 1   
    24    15    17 2   
    25    16    17 1   
    26    16    18 2   
    27    18    25 1   
@<TRIPOS>SUBSTRUCTURE
     1 U14         1 TEMP              0 ****  ****    0 ROOT
