@<TRIPOS>MOLECULE
U15
   60    60     1     0     0
SMALL
bcc


@<TRIPOS>ATOM
      1 O42          0.0000     0.0000     0.0000 o          1 U15      -0.601000
      2 C41          1.2080     0.0000     0.0000 c          1 U15       0.697100
      3 O43          1.8790    -0.0020    -1.1630 os         1 U15      -0.412900
      4 C44          1.1530    -0.0030    -2.4200 c3         1 U15       0.279700
      5 C37          1.9620     0.0000     1.3040 c3         1 U15      -0.040300
      6 C39          2.8420     1.2490     1.3840 c3         1 U15      -0.034400
      7 C48          3.6970     1.1910     2.6520 c3         1 U15      -0.057700
      8 C53          4.6850     0.0280     2.5480 c3         1 U15       0.003400
      9 C51          4.4680     2.5030     2.8080 c3         1 U15       0.003400
     10 N36          1.0110     0.0020     2.4180 ns         1 U15      -0.129900
     11 C27          0.4950    -1.1610     2.8660 c          1 U15       0.573100
     12 O35          0.8190    -2.2080     2.3460 o          1 U15      -0.673100
     13 C24         -0.4840    -1.1580     4.0110 c3         1 U15      -0.061300
     14 C28          0.1790    -0.5490     5.2480 c3         1 U15      -0.008100
     15 N23         -0.8930    -2.5340     4.3060 ns         1 U15      -0.158900
     16 C20         -2.0800    -2.7720     4.8990 c          1 U15       0.480100
     17 O22         -2.8080    -1.8470     5.1900 o          1 U15      -0.601100
     18 C14         -2.5010    -4.1870     5.2030 c3         1 U15       0.110100
     19 O19         -3.7300    -4.1720     5.9310 oh         1 U15      -0.570800
     20 C7          -2.6930    -4.9530     3.8920 c3         1 U15       0.016800
     21 N15         -3.6430    -4.2290     3.0370 nz         1 U15       0.059400
     22 C3          -3.2320    -6.3290     4.1890 ca         1 U15      -0.201300
     23 C6          -2.3790    -7.4170     4.2030 ca         1 U15      -0.069500
     24 C2          -2.8740    -8.6790     4.4750 ca         1 U15      -0.080500
     25 C5          -4.2200    -8.8530     4.7350 ca         1 U15      -0.033300
     26 C9          -4.7580   -10.2290     5.0310 c3         1 U15       0.052200
     27 C4          -5.0720    -7.7640     4.7230 ca         1 U15      -0.080500
     28 C1          -4.5780    -6.5020     4.4540 ca         1 U15      -0.069500
     29 H441         0.5120     0.8700    -2.4680 h1         1 U15       0.003700
     30 H442         0.5480    -0.8990    -2.4870 h1         1 U15       0.003700
     31 H443         1.8560     0.0210    -3.2440 h1         1 U15       0.003700
     32 H37          2.5840    -0.8850     1.3620 h1         1 U15       0.086700
     33 H391         2.2150     2.1320     1.4120 hc         1 U15       0.039200
     34 H392         3.4880     1.2920     0.5150 hc         1 U15       0.039200
     35 H48          3.0560     1.0440     3.5130 hc         1 U15       0.016700
     36 H531         5.5600     0.2420     3.1500 hc         1 U15       0.009867
     37 H532         4.2140    -0.8800     2.9060 hc         1 U15       0.009867
     38 H533         4.9820    -0.1030     1.5140 hc         1 U15       0.009867
     39 H511         5.1370     2.6310     1.9650 hc         1 U15       0.009867
     40 H512         3.7700     3.3300     2.8440 hc         1 U15       0.009867
     41 H513         5.0440     2.4760     3.7250 hc         1 U15       0.009867
     42 HN36         0.7170     0.8680     2.8240 hn         1 U15       0.187500
     43 H24         -1.3540    -0.5720     3.7420 h1         1 U15       0.071700
     44 H281        -0.2540    -0.9830     6.1410 hc         1 U15       0.022700
     45 H282         0.0180     0.5230     5.2530 hc         1 U15       0.022700
     46 H283         1.2420    -0.7540     5.2260 hc         1 U15       0.022700
     47 HN23        -0.2730    -3.2930     4.1040 hn         1 U15       0.198500
     48 H14         -1.7360    -4.6720     5.7960 h1         1 U15       0.057700
     49 HO19        -3.5490    -4.0910     6.8520 ho         1 U15       0.440000
     50 H7          -1.7420    -5.0400     3.3810 hx         1 U15       0.090700
     51 H151        -4.0030    -4.8490     2.3380 hn         1 U15       0.235467
     52 H152        -3.1770    -3.4620     2.5950 hn         1 U15       0.235467
     53 H6          -1.3240    -7.2810     3.9990 ha         1 U15       0.107000
     54 H2          -2.2060    -9.5310     4.4850 ha         1 U15       0.127000
     55 H91         -5.8390   -10.1870     5.0970 hc         1 U15       0.023367
     56 H92         -4.3530   -10.5810     5.9720 hc         1 U15       0.023367
     57 H93         -4.4710   -10.9080     4.2370 hc         1 U15       0.023367
     58 H4          -6.1270    -7.8990     4.9290 ha         1 U15       0.127000
     59 H1          -5.2460    -5.6490     4.4450 ha         1 U15       0.107000
     60 H153        -4.3810    -3.8540     3.6010 hn         1 U15       0.235467
@<TRIPOS>BOND
     1     1     2 2   
     2     2     3 1   
     3     2     5 1   
     4     3     4 1   
     5     4    29 1   
     6     4    30 1   
     7     4    31 1   
     8     5     6 1   
     9     5    10 1   
    10     5    32 1   
    11     6     7 1   
    12     6    33 1   
    13     6    34 1   
    14     7     8 1   
    15     7     9 1   
    16     7    35 1   
    17     8    36 1   
    18     8    37 1   
    19     8    38 1   
    20     9    39 1   
    21     9    40 1   
    22     9    41 1   
    23    10    11 1   
    24    10    42 1   
    25    11    12 2   
    26    11    13 1   
    27    13    14 1   
    28    13    15 1   
    29    13    43 1   
    30    14    44 1   
    31    14    45 1   
    32    14    46 1   
    33    15    16 1   
    34    15    47 1   
    35    16    17 2   
    36    16    18 1   
    37    18    19 1   
    38    18    20 1   
    39    18    48 1   
    40    19    49 1   
    41    20    21 1   
    42    20    22 1   
    43    20    50 1   
    44    21    51 1   
    45    21    52 1   
    46    21    60 1   
    47    22    23 ar  
    48    22    28 ar  
    49    23    24 ar  
    50    23    53 1   
    51    24    25 ar  
    52    24    54 1   
    53    25    26 1   
    54    25    27 ar  
    55    26    55 1   
    56    26    56 1   
    57    26    57 1   
    58    27    28 ar  
    59    27    58 1   
    60    28    59 1   
@<TRIPOS>SUBSTRUCTURE
     1 U15         1 TEMP              0 ****  ****    0 ROOT
