@<TRIPOS>MOLECULE
molecule
   66    66     1     0     0
SMALL
bcc


@<TRIPOS>ATOM
      1 O31          0.0000     0.0000     0.0000 o          1 U16      -0.564100
      2 C25          1.2130     0.0000     0.0000 c          1 U16       0.587100
      3 C23          1.9660     0.0000     1.3060 c3         1 U16       0.055100
      4 C11          2.7480    -1.3070     1.4440 c3         1 U16       0.185800
      5 C7           3.4020    -1.3610     2.8000 ca         1 U16      -0.171300
      6 C3           2.6610    -1.7210     3.9110 ca         1 U16      -0.108500
      7 C6           3.2610    -1.7750     5.1550 ca         1 U16      -0.116000
      8 C5           4.6010    -1.4590     5.2900 ca         1 U16      -0.026300
      9 C9           5.2540    -1.5140     6.6470 c3         1 U16      -0.043400
     10 C14          4.5480    -0.5400     7.5930 c3         1 U16      -0.086600
     11 C15          5.1500    -2.9340     7.2070 c3         1 U16      -0.086600
     12 C2           5.3400    -1.0940     4.1810 ca         1 U16      -0.116000
     13 C4           4.7400    -1.0450     2.9360 ca         1 U16      -0.108500
     14 N24          1.8300    -2.4450     1.2970 nz         1 U16      -0.809600
     15 O27          1.0410     0.1190     2.3890 oh         1 U16      -0.584800
     16 N32          1.8870    -0.0010    -1.1670 ns         1 U16      -0.566900
     17 C33          1.1560    -0.0010    -2.4350 c3         1 U16       0.034700
     18 C37          0.7920     1.4360    -2.8150 c3         1 U16      -0.107100
     19 C36          2.0200    -0.6030    -3.5130 c          1 U16       0.662100
     20 O41          3.1370    -0.9930    -3.2470 o          1 U16      -0.626100
     21 N42          1.5520    -0.7070    -4.7730 ns         1 U16      -0.546900
     22 C43          2.3910    -1.2920    -5.8210 c3         1 U16       0.072700
     23 C45          1.9500    -0.7590    -7.1850 c3         1 U16      -0.087400
     24 C49          2.2040     0.7480    -7.2510 c3         1 U16      -0.079700
     25 C52          3.7110     1.0130    -7.2020 c3         1 U16      -0.091100
     26 C53          1.6310     1.3060    -8.5550 c3         1 U16      -0.091100
     27 C47          2.2520    -2.7920    -5.7980 c          1 U16       0.626100
     28 O60          1.5250    -3.3190    -4.9900 o          1 U16      -0.558000
     29 O61          2.9350    -3.5430    -6.6760 os         1 U16      -0.432900
     30 C62          2.8000    -4.9890    -6.6550 c3         1 U16       0.146700
     31 H23          2.6540     0.8360     1.3250 h1         1 U16       0.101700
     32 H11          3.5090    -1.3560     0.6740 hx         1 U16       0.118700
     33 H3           1.6130    -1.9760     3.8040 ha         1 U16       0.140000
     34 H6           2.6820    -2.0640     6.0240 ha         1 U16       0.157500
     35 H9           6.2970    -1.2370     6.5570 hc         1 U16       0.067700
     36 H141         5.1350    -0.4250     8.4960 hc         1 U16       0.044200
     37 H142         3.5690    -0.9280     7.8460 hc         1 U16       0.044200
     38 H143         4.4410     0.4220     7.1070 hc         1 U16       0.044200
     39 H151         4.1250    -3.1360     7.4930 hc         1 U16       0.044200
     40 H152         5.4600    -3.6440     6.4490 hc         1 U16       0.044200
     41 H153         5.7920    -3.0280     8.0740 hc         1 U16       0.044200
     42 H2           6.3930    -0.8580     4.2850 ha         1 U16       0.157500
     43 H4           5.5180    -0.8210     2.2160 ha         1 U16       0.140000
     44 H241         1.7620    -2.6970     0.3310 hn         1 U16       0.463800
     45 H242         0.9250    -2.1900     1.6400 hn         1 U16       0.463800
     46 HO27         0.8990     1.0310     2.5820 ho         1 U16       0.452000
     47 HN32         2.8870     0.0330    -1.1660 hn         1 U16       0.336500
     48 H33          0.2500    -0.5870    -2.3300 h1         1 U16       0.099700
     49 H371         0.6500     2.0220    -1.9160 hc         1 U16       0.058033
     50 H372         1.5930     1.8670    -3.4040 hc         1 U16       0.058033
     51 H373        -0.1230     1.4350    -3.3950 hc         1 U16       0.058033
     52 HN42         0.6160    -0.4210    -4.9830 hn         1 U16       0.332500
     53 H43          3.4260    -1.0230    -5.6470 h1         1 U16       0.113700
     54 H451         2.5140    -1.2540    -7.9660 hc         1 U16       0.068200
     55 H452         0.8940    -0.9530    -7.3240 hc         1 U16       0.068200
     56 H49          1.7250     1.2330    -6.4090 hc         1 U16       0.043700
     57 H521         4.2360     0.2020    -7.6910 hc         1 U16       0.041200
     58 H522         4.0320     1.0800    -6.1690 hc         1 U16       0.041200
     59 H523         3.9300     1.9440    -7.7090 hc         1 U16       0.041200
     60 H531         1.7390     2.3840    -8.5650 hc         1 U16       0.041200
     61 H532         2.1660     0.8810    -9.3960 hc         1 U16       0.041200
     62 H533         0.5810     1.0480    -8.6270 hc         1 U16       0.041200
     63 H621         1.7910    -5.2620    -6.9430 h1         1 U16       0.052700
     64 H622         3.5050    -5.4280    -7.3510 h1         1 U16       0.052700
     65 H623         3.0030    -5.3560    -5.6570 h1         1 U16       0.052700
     66 H243         2.1730    -3.2210     1.8290 hn         1 U16       0.463800
@<TRIPOS>BOND
     1     1     2 2
     2     2     3 1
     3     2    16 1
     4     3     4 1
     5     3    15 1
     6     3    31 1
     7     4     5 1
     8     4    14 1
     9     4    32 1
    10     5     6 ar
    11     5    13 ar
    12     6     7 ar
    13     6    33 1
    14     7     8 ar
    15     7    34 1
    16     8     9 1
    17     8    12 ar
    18     9    10 1
    19     9    11 1
    20     9    35 1
    21    10    36 1
    22    10    37 1
    23    10    38 1
    24    11    39 1
    25    11    40 1
    26    11    41 1
    27    12    13 ar
    28    12    42 1
    29    13    43 1
    30    14    44 1
    31    14    45 1
    32    15    46 1
    33    16    17 1
    34    16    47 1
    35    17    18 1
    36    17    19 1
    37    17    48 1
    38    18    49 1
    39    18    50 1
    40    18    51 1
    41    19    20 2
    42    19    21 1
    43    21    22 1
    44    21    52 1
    45    22    23 1
    46    22    27 1
    47    22    53 1
    48    23    24 1
    49    23    54 1
    50    23    55 1
    51    24    25 1
    52    24    26 1
    53    24    56 1
    54    25    57 1
    55    25    58 1
    56    25    59 1
    57    26    60 1
    58    26    61 1
    59    26    62 1
    60    27    28 2
    61    27    29 1
    62    29    30 1
    63    30    63 1
    64    30    64 1
    65    30    65 1
    66    66    14 1
@<TRIPOS>SUBSTRUCTURE
     1 U16         1 TEMP              0 ****  ****    0 ROOT
