@<TRIPOS>MOLECULE
U17
   60    59     1     0     0
SMALL
bcc


@<TRIPOS>ATOM
      1 O2           0.0000     0.0000     0.0000 o          1 U17      -0.606100
      2 C10          1.2120     0.0000     0.0000 c          1 U17       0.482100
      3 C9           1.9660     0.0000     1.3050 c3         1 U17       0.109100
      4 C7           2.7490    -1.3080     1.4410 c3         1 U17      -0.076500
      5 C3           3.4130    -1.3630     2.8180 c3         1 U17      -0.043400
      6 C6           4.2970    -2.6100     2.9080 c3         1 U17      -0.040400
      7 C2           4.9610    -2.6660     4.2850 c3         1 U17      -0.019400
      8 C5           5.8440    -3.9120     4.3750 c3         1 U17       0.007900
      9 N1           1.8320    -2.4450     1.2940 nz         1 U17       0.065400
     10 O1           1.0410     0.1160     2.3880 oh         1 U17      -0.571800
     11 N2           1.8860     0.0020    -1.1670 ns         1 U17      -0.143900
     12 C11          1.1540     0.0030    -2.4360 c3         1 U17      -0.068300
     13 C13          0.7900     1.4400    -2.8140 c3         1 U17       0.211400
     14 O6           1.9840     2.1820    -3.0660 oh         1 U17      -0.582800
     15 C12          2.0180    -0.5970    -3.5150 c          1 U17       0.584100
     16 O3           3.1360    -0.9870    -3.2510 o          1 U17      -0.668100
     17 N3           1.5490    -0.7000    -4.7750 ns         1 U17      -0.130900
     18 C14          2.3890    -1.2830    -5.8240 c3         1 U17      -0.037300
     19 C15          1.5000    -1.8530    -6.9300 c3         1 U17      -0.035400
     20 C17          0.6790    -3.0190    -6.3750 c3         1 U17      -0.057700
     21 C18         -0.2990    -3.5100    -7.4450 c3         1 U17       0.003900
     22 C19          1.6180    -4.1610    -5.9800 c3         1 U17       0.003900
     23 C16          3.2850    -0.2170    -6.3990 c          1 U17       0.685100
     24 O4           3.2290     0.9130    -5.9760 o          1 U17      -0.573000
     25 O5           4.1470    -0.5230    -7.3820 os         1 U17      -0.419900
     26 C20          5.0110     0.5040    -7.9360 c3         1 U17       0.279700
     27 H9           2.6540     0.8370     1.3250 h1         1 U17       0.058700
     28 H7           3.5090    -1.3550     0.6710 hx         1 U17       0.096700
     29 H31          2.6500    -1.4050     3.5860 hc         1 U17       0.059200
     30 H32          4.0220    -0.4780     2.9610 hc         1 U17       0.059200
     31 H61          5.0600    -2.5680     2.1400 hc         1 U17       0.012200
     32 H62          3.6880    -3.4950     2.7650 hc         1 U17       0.012200
     33 H21          5.5700    -1.7810     4.4280 hc         1 U17       0.023700
     34 H22          4.1980    -2.7070     5.0520 hc         1 U17       0.023700
     35 H51          6.3280    -3.9420     5.3450 hc         1 U17       0.011033
     36 H52          5.2330    -4.7970     4.2490 hc         1 U17       0.011033
     37 H53          6.5970    -3.8780     3.5970 hc         1 U17       0.011033
     38 HN11         1.2850    -2.5430     2.1260 hn         1 U17       0.233467
     39 HN12         2.3590    -3.2820     1.1410 hn         1 U17       0.233467
     40 HO1          0.9940     1.0160     2.6670 ho         1 U17       0.440000
     41 HN2          2.8870     0.0290    -1.1670 hn         1 U17       0.206500
     42 H11          0.2490    -0.5830    -2.3310 h1         1 U17       0.066700
     43 H131         0.1730     1.4340    -3.7040 h1         1 U17       0.007200
     44 H132         0.2440     1.9000    -1.9990 h1         1 U17       0.007200
     45 HO6          1.7770     3.1000    -3.1240 ho         1 U17       0.410000
     46 HN3          0.6290    -0.3730    -4.9940 hn         1 U17       0.184500
     47 H14          2.9950    -2.0760    -5.4020 h1         1 U17       0.081700
     48 H151         2.1200    -2.2050    -7.7460 hc         1 U17       0.040200
     49 H152         0.8320    -1.0810    -7.2910 hc         1 U17       0.040200
     50 H17          0.1260    -2.6890    -5.5040 hc         1 U17       0.012700
     51 H181         0.2550    -3.8850    -8.2960 hc         1 U17       0.008700
     52 H182        -0.9140    -4.3020    -7.0360 hc         1 U17       0.008700
     53 H183        -0.9320    -2.6880    -7.7590 hc         1 U17       0.008700
     54 H191         1.9560    -4.0150    -4.9620 hc         1 U17       0.008700
     55 H192         2.4720    -4.1730    -6.6470 hc         1 U17       0.008700
     56 H193         1.0900    -5.1040    -6.0540 hc         1 U17       0.008700
     57 H201         4.4060     1.3120    -8.3290 h1         1 U17       0.004367
     58 H202         5.6100     0.0800    -8.7340 h1         1 U17       0.004367
     59 H203         5.6630     0.8850    -7.1590 h1         1 U17       0.004367
     60 H13          1.2280    -2.2880     0.5110 hn         1 U17       0.233467
@<TRIPOS>BOND
     1     1     2 2   
     2     2     3 1   
     3     2    11 1   
     4     3     4 1   
     5     3    10 1   
     6     3    27 1   
     7     4     5 1   
     8     4     9 1   
     9     4    28 1   
    10     5     6 1   
    11     5    29 1   
    12     5    30 1   
    13     6     7 1   
    14     6    31 1   
    15     6    32 1   
    16     7     8 1   
    17     7    33 1   
    18     7    34 1   
    19     8    35 1   
    20     8    36 1   
    21     8    37 1   
    22     9    38 1   
    23     9    39 1   
    24     9    60 1   
    25    10    40 1   
    26    11    12 1   
    27    11    41 1   
    28    12    13 1   
    29    12    15 1   
    30    12    42 1   
    31    13    14 1   
    32    13    43 1   
    33    13    44 1   
    34    14    45 1   
    35    15    16 2   
    36    15    17 1   
    37    17    18 1   
    38    17    46 1   
    39    18    19 1   
    40    18    23 1   
    41    18    47 1   
    42    19    20 1   
    43    19    48 1   
    44    19    49 1   
    45    20    21 1   
    46    20    22 1   
    47    20    50 1   
    48    21    51 1   
    49    21    52 1   
    50    21    53 1   
    51    22    54 1   
    52    22    55 1   
    53    22    56 1   
    54    23    24 2   
    55    23    25 1   
    56    25    26 1   
    57    26    57 1   
    58    26    58 1   
    59    26    59 1   
@<TRIPOS>SUBSTRUCTURE
     1 U17         1 TEMP              0 ****  ****    0 ROOT
