@<TRIPOS>MOLECULE
U18
   59    63     1     0     0
SMALL
bcc


@<TRIPOS>ATOM
      1 N1         -0.5510    0.3570   -0.3720 nc        1 U18     -0.632100
      2 C2          0.7510    0.5340   -0.5170 cd        1 U18      0.483900
      3 CA2         1.3420    0.7030   -1.8970 c3        1 U18     -0.140400
      4 N3          1.6430    0.5780    0.5540 n         1 U18     -0.496400
      5 C4          1.2000    0.4310    1.8850 c         1 U18      0.707100
      6 OA4         2.0770    0.5200    2.7620 o         1 U18     -0.622500
      7 C4A        -0.2450    0.2020    2.0720 ca        1 U18     -0.166600
      8 C4B        -0.8190   -0.0020    3.3680 ca        1 U18      0.017000
      9 C5         -0.0550   -0.0420    4.5650 ca        1 U18     -0.125000
     10 C6         -0.6570   -0.2360    5.7920 ca        1 U18     -0.070300
     11 C7         -2.0610   -0.4040    5.8780 ca        1 U18     -0.104000
     12 C8         -2.8240   -0.3810    4.7360 ca        1 U18     -0.130000
     13 C8A        -2.2240   -0.1850    3.4660 ca        1 U18     -0.061000
     14 C9         -3.0260   -0.1770    2.2900 ca        1 U18     -0.080000
     15 C10        -2.4740   -0.0010    1.0550 ca        1 U18     -0.135000
     16 C1A        -1.0590    0.1910    0.9200 ca        1 U18      0.190400
     17 C11         0.1700   -0.2320    7.0480 c3        1 U18      0.213100
     18 N12        -0.1530   -1.3190    7.9500 nh        1 U18     -0.714600
     19 C13         0.7460   -1.5400    9.0240 ca        1 U18      0.109600
     20 C14         0.8340   -2.8470    9.5800 ca        1 U18     -0.178000
     21 C15         1.6360   -3.0430   10.6830 ca        1 U18     -0.035300
     22 C16         2.3770   -1.9760   11.2520 ca        1 U18     -0.169600
     23 C17         2.3010   -0.7080   10.7180 ca        1 U18     -0.051000
     24 C18         1.4880   -0.4900    9.5980 ca        1 U18     -0.206000
     25 C19         1.9200   -4.2870   11.4850 c3        1 U18      0.079300
     26 C           3.1500   -2.5150   12.4340 c         1 U18      0.704100
     27 O           3.8860   -1.8160   13.1450 o         1 U18     -0.617500
     28 N           2.9490   -3.9040   12.4670 n         1 U18     -0.396800
     29 CA          3.0050   -4.7390   13.6640 c3        1 U18     -0.019300
     30 CT          1.7250   -4.5810   14.5530 c         1 U18      0.893600
     31 O1          1.7980   -4.0620   15.6940 o         1 U18     -0.845300
     32 O2          0.6400   -5.0180   14.0510 o         1 U18     -0.845300
     33 CB          4.3050   -4.6120   14.4600 c3        1 U18     -0.054400
     34 CG          5.5090   -5.0820   13.6740 c3        1 U18     -0.178400
     35 CD          6.7000   -5.5080   14.5400 c         1 U18      0.904600
     36 OE1         6.5260   -6.3220   15.4950 o         1 U18     -0.874800
     37 OE2         7.8510   -5.0710   14.2270 o         1 U18     -0.874800
     38 HA21        1.8630    1.6890   -1.9660 hc        1 U18      0.064367
     39 HA22        2.0780   -0.1160   -2.0930 hc        1 U18      0.064367
     40 HA23        0.5460    0.6620   -2.6790 hc        1 U18      0.064367
     41 HN3         2.6150    0.7180    0.3890 hn        1 U18      0.333500
     42 H5          1.0400    0.0820    4.5180 ha        1 U18      0.177000
     43 H7         -2.5260   -0.5520    6.8660 ha        1 U18      0.160000
     44 H8         -3.9140   -0.5170    4.7890 ha        1 U18      0.130000
     45 H9         -4.1130   -0.3210    2.3990 ha        1 U18      0.133000
     46 H10        -3.0990   -0.0030    0.1490 ha        1 U18      0.146000
     47 H111       -0.0460    0.7340    7.5950 h1        1 U18      0.051700
     48 H112        1.2670   -0.2210    6.7730 h1        1 U18      0.051700
     49 HN2        -0.3430   -2.1690    7.4520 hn        1 U18      0.376800
     50 H14         0.2620   -3.6810    9.1510 ha        1 U18      0.126000
     51 H17         2.8720    0.1210   11.1630 ha        1 U18      0.142000
     52 H18         1.4340    0.5250    9.1800 ha        1 U18      0.113000
     53 H191        0.9890   -4.6610   12.0120 h1        1 U18      0.094200
     54 H192        2.3330   -5.1030   10.8320 h1        1 U18      0.094200
     55 HA          2.9590   -5.8010   13.2640 h1        1 U18      0.037700
     56 HB1         4.1850   -5.2430   15.3810 hc        1 U18      0.067700
     57 HB2         4.4450   -3.5520   14.7940 hc        1 U18      0.067700
     58 HG1         5.8420   -4.2740   12.9740 hc        1 U18      0.013700
     59 HG2         5.2310   -5.9740   13.0520 hc        1 U18      0.013700
@<TRIPOS>BOND
     1    1    2 2
     2    1   16 1
     3    2    3 1
     4    2    4 1
     5    3   38 1
     6    3   39 1
     7    3   40 1
     8    4    5 1
     9    4   41 1
    10    5    6 2
    11    5    7 1
    12    7    8 ar
    13    7   16 ar
    14    8    9 ar
    15    8   13 ar
    16    9   10 ar
    17    9   42 1
    18   10   11 ar
    19   10   17 1
    20   11   12 ar
    21   11   43 1
    22   12   13 ar
    23   12   44 1
    24   13   14 ar
    25   14   15 ar
    26   14   45 1
    27   15   16 ar
    28   15   46 1
    29   17   18 1
    30   17   47 1
    31   17   48 1
    32   18   19 1
    33   18   49 1
    34   19   20 ar
    35   19   24 ar
    36   20   21 ar
    37   20   50 1
    38   21   22 ar
    39   21   25 1
    40   22   23 ar
    41   22   26 1
    42   23   24 ar
    43   23   51 1
    44   24   52 1
    45   25   28 1
    46   25   53 1
    47   25   54 1
    48   26   27 2
    49   26   28 1
    50   28   29 1
    51   29   30 1
    52   29   33 1
    53   29   55 1
    54   30   31 1
    55   30   32 1
    56   33   34 1
    57   33   56 1
    58   33   57 1
    59   34   35 1
    60   34   58 1
    61   34   59 1
    62   35   36 1
    63   35   37 1
@<TRIPOS>SUBSTRUCTURE
     1 U18         1 TEMP              0 ****  ****    0 ROOT
