@<TRIPOS>MOLECULE
U19
   27    28     1     0     0
SMALL
bcc


@<TRIPOS>ATOM
      1 F3           0.0000     0.0000     0.0000 f          1 U19      -0.203300
      2 C7           1.4000     0.0000     0.0000 c3         1 U19       0.637200
      3 F1           1.8650     0.0000     1.3190 f          1 U19      -0.203300
      4 F2           1.8660     1.1410    -0.6610 f          1 U19      -0.203300
      5 C3           1.9010    -1.2310    -0.7100 ca         1 U19      -0.137300
      6 C6           2.6930    -2.1410    -0.0410 ca         1 U19      -0.048000
      7 C2           3.1550    -3.2710    -0.6910 ca         1 U19      -0.007000
      8 C1           1.5550    -1.4610    -2.0450 ca         1 U19       0.049400
      9 C4           2.0260    -2.6060    -2.6950 ca         1 U19      -0.023000
     10 C5           2.8220    -3.5030    -2.0140 ca         1 U19      -0.078000
     11 N1           0.7670    -0.5680    -2.7130 ne         1 U19      -0.126400
     12 N2           0.4540    -0.7800    -3.9460 nf         1 U19      -0.182600
     13 C8          -0.3240     0.1010    -4.6050 cd         1 U19       0.138000
     14 C10         -0.8760     1.2820    -4.1210 cc         1 U19      -0.325400
     15 N5          -0.7260     1.7850    -2.8420 nz         1 U19       0.339600
     16 N6          -1.5920     1.8490    -5.1220 nc         1 U19      -0.076600
     17 N3          -1.5510     1.1620    -6.2030 nd         1 U19      -0.199300
     18 C9          -0.7900     0.0320    -6.0200 cd         1 U19       0.422600
     19 N4          -0.5320    -0.8970    -6.8920 n2         1 U19      -0.303100
     20 H6           2.9580    -1.9670     0.9950 ha         1 U19       0.143000
     21 H2           3.7790    -3.9810    -0.1600 ha         1 U19       0.129000
     22 H4           1.7640    -2.7890    -3.7310 ha         1 U19       0.141000
     23 H5           3.1880    -4.3900    -2.5160 ha         1 U19       0.132000
     24 HN51         0.2440     1.9440    -2.6580 hn         1 U19       0.211133
     25 HN52        -1.0880     1.1270    -2.1810 hn         1 U19       0.211133
     26 HN42        -0.9060    -0.8310    -7.8180 hn         1 U19       0.352400
     27 H53         -1.2270     2.6480    -2.7630 hn         1 U19       0.211133
@<TRIPOS>BOND
     1     1     2 1   
     2     2     3 1   
     3     2     4 1   
     4     2     5 1   
     5     5     6 ar  
     6     5     8 ar  
     7     6     7 ar  
     8     6    20 1   
     9     7    10 ar  
    10     7    21 1   
    11     8     9 ar  
    12     8    11 1   
    13     9    10 ar  
    14     9    22 1   
    15    10    23 1   
    16    11    12 2   
    17    12    13 1   
    18    13    14 2   
    19    13    18 1   
    20    14    15 1   
    21    14    16 1   
    22    15    24 1   
    23    15    25 1   
    24    15    27 1   
    25    16    17 2   
    26    17    18 1   
    27    18    19 2   
    28    19    26 1   
@<TRIPOS>SUBSTRUCTURE
     1 U19         1 TEMP              0 ****  ****    0 ROOT
