@<TRIPOS>MOLECULE
molecule
   31    31     1     0     0
SMALL
bcc


@<TRIPOS>ATOM
      1 O1           0.0000     0.0000     0.0000 o          1 U1K      -0.811800
      2 C2           1.3420     0.0000     0.0000 c          1 U1K       0.874600
      3 O3           1.9470    -0.0010    -1.0470 o          1 U1K      -0.811800
      4 C4           2.0970     0.0000     1.3040 c3         1 U1K      -0.006500
      5 C5           2.1340     1.4200     1.8710 c3         1 U1K      -0.000100
      6 C6           2.7620     1.3990     3.2410 cc         1 U1K      -0.335600
      7 C7           2.0090     1.3370     4.3720 cd         1 U1K       0.004600
      8 S8           3.2170     1.3410     5.6150 ss         1 U1K      -0.111800
      9 N9           4.6140     1.4280     4.6350 nd         1 U1K      -0.571100
     10 C10          4.1310     1.4510     3.4140 cc         1 U1K       0.820300
     11 O11          4.9650     1.5190     2.3420 o          1 U1K      -0.958000
     12 C12          0.5110     1.2740     4.5090 c3         1 U1K       0.019300
     13 C13         -0.0310     0.1170     3.6650 c3         1 U1K      -0.086100
     14 C14         -0.1010     2.5890     4.0220 c3         1 U1K      -0.086100
     15 C15          0.1410     1.0520     5.9770 c3         1 U1K      -0.086100
     16 N16          3.4680    -0.4740     1.0780 nz         1 U1K      -0.778600
     17 H4           1.6000    -0.6570     2.0090 hx         1 U1K       0.091700
     18 H51          2.7190     2.0550     1.2160 hc         1 U1K       0.079200
     19 H52          1.1250     1.8080     1.9430 hc         1 U1K       0.079200
     20 H131        -1.0040    -0.1770     4.0380 hc         1 U1K       0.038033
     21 H132         0.6490    -0.7240     3.7260 hc         1 U1K       0.038033
     22 H133        -0.1210     0.4340     2.6330 hc         1 U1K       0.038033
     23 H141        -0.9150     2.8740     4.6790 hc         1 U1K       0.038033
     24 H142        -0.4780     2.4610     3.0150 hc         1 U1K       0.038033
     25 H143         0.6560     3.3640     4.0290 hc         1 U1K       0.038033
     26 H151        -0.9370     0.9940     6.0730 hc         1 U1K       0.038033
     27 H152         0.5850     0.1270     6.3250 hc         1 U1K       0.038033
     28 H153         0.5120     1.8770     6.5720 hc         1 U1K       0.038033
     29 H161         3.9970     0.2420     0.6190 hn         1 U1K       0.443467
     30 H162         3.8950    -0.6910     1.9570 hn         1 U1K       0.443467
     31 H163         3.4480    -1.2940     0.5050 hn         1 U1K       0.443467
@<TRIPOS>BOND
     1     1     2 1
     2     2     3 1
     3     2     4 1
     4     4     5 1
     5     4    16 1
     6     4    17 1
     7     5     6 1
     8     5    18 1
     9     5    19 1
    10     6     7 2
    11     6    10 1
    12     7     8 1
    13     7    12 1
    14     8     9 1
    15     9    10 2
    16    10    11 1
    17    12    13 1
    18    12    14 1
    19    12    15 1
    20    13    20 1
    21    13    21 1
    22    13    22 1
    23    14    23 1
    24    14    24 1
    25    14    25 1
    26    15    26 1
    27    15    27 1
    28    15    28 1
    29    16    29 1
    30    16    30 1
    31    16    31 1
@<TRIPOS>SUBSTRUCTURE
     1 U1K         1 TEMP              0 ****  ****    0 ROOT
