@<TRIPOS>MOLECULE
molecule
   46    47     1     0     0
SMALL
bcc


@<TRIPOS>ATOM
      1 C1           0.0000     0.0000     0.0000 ca         1 U1N      -0.227600
      2 C2           1.3950     0.0000     0.0000 ca         1 U1N      -0.063500
      3 C3           2.0930     0.0000     1.2080 ca         1 U1N      -0.118000
      4 C4           1.3870     0.0020     2.4020 ca         1 U1N       0.008700
      5 C5           0.0000     0.0020     2.4160 ca         1 U1N      -0.118000
      6 C6          -0.6980     0.0020     1.2090 ca         1 U1N      -0.063500
      7 C7           2.1420     0.0030     3.7070 c3         1 U1N      -0.057100
      8 C8           2.4540     1.4080     4.2450 c3         1 U1N      -0.066400
      9 C9           3.2850     1.4250     5.5380 c3         1 U1N       0.172500
     10 C11          2.5210     0.7590     6.6780 c3         1 U1N      -0.093100
     11 N12          4.5570     0.7650     5.3540 n7         1 U1N      -0.815200
     12 C13          5.3170     1.3680     4.2620 c3         1 U1N       0.066800
     13 C14          6.6300     0.6310     4.0820 c          1 U1N       0.565700
     14 O15          7.2120     0.0900     5.0190 o          1 U1N      -0.500100
     15 C16          7.2280     0.5610     2.7160 ca         1 U1N      -0.186600
     16 C17          6.9920     1.5950     1.8400 ca         1 U1N      -0.063500
     17 C18          7.5520     1.5300     0.5640 ca         1 U1N      -0.180500
     18 C19          8.3320     0.4330     0.2000 ca         1 U1N       0.155900
     19 F20          8.8710     0.3700    -1.0250 f          1 U1N      -0.127900
     20 C21          8.5540    -0.5990     1.1120 ca         1 U1N      -0.180500
     21 C22          7.9930    -0.5340     2.3880 ca         1 U1N      -0.063500
     22 C23         -0.7280     0.0000    -1.2590 c          1 U1N       0.515700
     23 N24          0.0150    -0.0000    -2.4350 nz         1 U1N      -0.684400
     24 O25         -1.9710     0.0180    -1.2900 o          1 U1N      -0.427100
     25 H2           1.9360    -0.0010    -0.9380 ha         1 U1N       0.139000
     26 H3           3.1760    -0.0000     1.2130 ha         1 U1N       0.169000
     27 H5          -0.5360     0.0030     3.3570 ha         1 U1N       0.169000
     28 H6          -1.7810     0.0020     1.2090 ha         1 U1N       0.139000
     29 H71          3.0760    -0.5280     3.5660 hc         1 U1N       0.077200
     30 H72          1.5520    -0.5250     4.4470 hc         1 U1N       0.077200
     31 H81          1.5180     1.9190     4.4330 hc         1 U1N       0.042700
     32 H82          2.9970     1.9540     3.4820 hc         1 U1N       0.042700
     33 H9           3.4720     2.4570     5.8090 h1         1 U1N       0.028700
     34 H111         2.5450    -0.3160     6.5510 hc         1 U1N       0.047700
     35 H112         2.9820     1.0210     7.6230 hc         1 U1N       0.047700
     36 H113         1.4930     1.1010     6.6720 hc         1 U1N       0.047700
     37 HN12         5.0880     0.8220     6.2000 hn         1 U1N       0.388800
     38 H131         5.5160     2.4070     4.4920 h1         1 U1N       0.051200
     39 H132         4.7410     1.3060     3.3460 h1         1 U1N       0.051200
     40 H17          6.3840     2.4420     2.1340 ha         1 U1N       0.152000
     41 H18          7.3810     2.3310    -0.1440 ha         1 U1N       0.152500
     42 H21          9.1600    -1.4510     0.8290 ha         1 U1N       0.152500
     43 H22          8.1580    -1.3290     3.1050 ha         1 U1N       0.152000
     44 H241         0.5920    -0.8170    -2.4660 hn         1 U1N       0.474467
     45 H242         0.5910     0.8170    -2.4660 hn         1 U1N       0.474467
     46 H243        -0.6050    -0.0010    -3.2210 hn         1 U1N       0.474467
@<TRIPOS>BOND
     1     1     6 ar
     2     1    22 1
     3     1     2 ar
     4     2     3 ar
     5     2    25 1
     6     3     4 ar
     7     3    26 1
     8     4     5 ar
     9     4     7 1
    10     5     6 ar
    11     5    27 1
    12     6    28 1
    13     7     8 1
    14     7    29 1
    15     7    30 1
    16     8     9 1
    17     8    31 1
    18     8    32 1
    19     9    11 1
    20     9    10 1
    21     9    33 1
    22    10    34 1
    23    10    35 1
    24    10    36 1
    25    11    12 1
    26    11    37 1
    27    12    13 1
    28    12    38 1
    29    12    39 1
    30    13    15 1
    31    13    14 2
    32    15    21 ar
    33    15    16 ar
    34    16    17 ar
    35    16    40 1
    36    17    18 ar
    37    17    41 1
    38    18    19 1
    39    18    20 ar
    40    20    21 ar
    41    20    42 1
    42    21    43 1
    43    22    24 2
    44    22    23 1
    45    23    44 1
    46    23    45 1
    47    46    23 1
@<TRIPOS>SUBSTRUCTURE
     1 U1N         1 TEMP              0 ****  ****    0 ROOT
