@<TRIPOS>MOLECULE
U1P
   35    36     1     0     0
SMALL
bcc


@<TRIPOS>ATOM
      1 O1P          0.0000     0.0000     0.0000 o          1 U1P      -0.703500
      2 P            1.4810     0.0000     0.0000 p5         1 U1P       0.706900
      3 O2P          2.0170     0.0000     1.5180 o          1 U1P      -0.703500
      4 O3P          2.0170    -1.3140    -0.7590 o          1 U1P      -0.703500
      5 N1           1.2170     5.0700    -4.4130 n          1 U1P       0.081000
      6 C2          -0.1130     4.9410    -4.2690 c          1 U1P       0.578500
      7 O2          -0.5690     4.6200    -3.1880 o          1 U1P      -0.660500
      8 N3          -0.9500     5.1620    -5.3000 ns         1 U1P      -0.140500
      9 C4          -0.4700     5.5190    -6.5070 c          1 U1P       0.627700
     10 O4          -1.2310     5.7170    -7.4360 o          1 U1P      -0.725500
     11 C6           1.7570     5.4390    -5.6280 cc         1 U1P      -0.194000
     12 C5           0.9300     5.6610    -6.6870 cd         1 U1P      -0.363200
     13 O5'          2.0160     1.3150    -0.7590 os         1 U1P      -0.471200
     14 C5'          1.6280     2.6400    -0.3900 c3         1 U1P       0.287400
     15 C4'          2.3170     3.6490    -1.3100 c3         1 U1P       0.146100
     16 C3'          2.0100     5.0920    -0.8510 c3         1 U1P       0.134100
     17 O3'          3.0910     5.6110    -0.0730 oh         1 U1P      -0.566800
     18 C2'          1.8640     5.8830    -2.1710 c3         1 U1P       0.109100
     19 O2'          2.8510     6.9130    -2.2480 oh         1 U1P      -0.568800
     20 O4'          1.7730     3.5640    -2.6450 os         1 U1P      -0.334600
     21 C1'          2.1010     4.8240    -3.2700 c3         1 U1P       0.184500
     22 C7           3.2180     5.5850    -5.7810 ce         1 U1P       0.456500
     23 N8           3.7100     6.0250    -6.8910 n2         1 U1P      -0.681100
     24 HN3         -1.9370     5.0600    -5.1680 hn         1 U1P       0.195500
     25 H5           1.3340     5.9500    -7.6500 ha         1 U1P       0.140000
     26 H5'          1.9190     2.8290     0.6360 h1         1 U1P      -0.015800
     27 H5'A         0.5530     2.7410    -0.4840 h1         1 U1P      -0.015800
     28 H4'          3.3870     3.4810    -1.3300 h1         1 U1P       0.032700
     29 H3'          1.0840     5.1210    -0.2900 h1         1 U1P       0.024700
     30 HO3'         2.7570     5.9590     0.7370 ho         1 U1P       0.373000
     31 H2'          0.8660     6.2970    -2.2540 h1         1 U1P       0.021700
     32 HO2'         2.4380     7.7540    -2.1360 ho         1 U1P       0.371000
     33 H1'          3.1390     4.8300    -3.5800 h2         1 U1P       0.050700
     34 H7           3.8760     5.3230    -4.9620 h4         1 U1P       0.011800
     35 HN8          3.1020     6.2670    -7.6470 hn         1 U1P       0.318400
@<TRIPOS>BOND
     1     1     2 1   
     2     2     3 1   
     3     2     4 1   
     4     2    13 1   
     5     5     6 1   
     6     5    11 1   
     7     5    21 1   
     8     6     7 2   
     9     6     8 1   
    10     8     9 1   
    11     8    24 1   
    12     9    10 2   
    13     9    12 1   
    14    11    12 2   
    15    11    22 1   
    16    12    25 1   
    17    13    14 1   
    18    14    15 1   
    19    14    26 1   
    20    14    27 1   
    21    15    16 1   
    22    15    20 1   
    23    15    28 1   
    24    16    17 1   
    25    16    18 1   
    26    16    29 1   
    27    17    30 1   
    28    18    19 1   
    29    18    21 1   
    30    18    31 1   
    31    19    32 1   
    32    20    21 1   
    33    21    33 1   
    34    22    23 2   
    35    22    34 1   
    36    23    35 1   
@<TRIPOS>SUBSTRUCTURE
     1 U1P         1 TEMP              0 ****  ****    0 ROOT
