@<TRIPOS>MOLECULE
molecule
   52    54     1     0     0
SMALL
bcc


@<TRIPOS>ATOM
      1 C4           0.0000     0.0000     0.0000 c          1 U1S       0.704700
      2 C5           1.4160     0.0000     0.0000 cc         1 U1S      -0.326200
      3 C6           2.0730     0.0000     1.1800 cd         1 U1S       0.044600
      4 N1           1.3640     0.0000     2.3510 n          1 U1S      -0.376000
      5 N3          -0.6620     0.0000     1.1750 ns         1 U1S      -0.561500
      6 CAV         -0.7620    -5.2060     7.1460 c3         1 U1S      -0.116700
      7 CAK          0.7690    -5.1960     7.1950 c3         1 U1S      -0.066900
      8 CAM          1.2540    -3.7950     7.5710 c3         1 U1S       0.161300
      9 CAJ         -1.2390    -4.1550     6.1400 c3         1 U1S      -0.066900
     10 CAL         -0.6950    -2.7830     6.5460 c3         1 U1S       0.161300
     11 NBA          0.7710    -2.8250     6.5780 n3         1 U1S      -0.718600
     12 C4'          1.0140    -0.5730     5.6460 c3         1 U1S       0.139100
     13 O4'          1.6130    -1.0840     4.4440 os         1 U1S      -0.370600
     14 C3'          1.6570     0.8200     5.8580 c3         1 U1S       0.095100
     15 O3'          0.7960     1.6750     6.6140 oh         1 U1S      -0.586800
     16 C2'          1.7860     1.3120     4.3910 c3         1 U1S       0.076100
     17 O2'          2.8740     2.2280     4.2560 oh         1 U1S      -0.604800
     18 C1'          2.0760    -0.0000     3.6300 c3         1 U1S       0.313500
     19 O4          -0.6140     0.0050    -1.0510 o          1 U1S      -0.618500
     20 C2           0.0180     0.0010     2.3370 c          1 U1S       0.813500
     21 O2          -0.5920     0.0010     3.3890 o          1 U1S      -0.658500
     22 H5           1.9650    -0.0000    -0.9340 ha         1 U1S       0.179000
     23 H6           3.1560    -0.0000     1.2000 h4         1 U1S       0.167000
     24 HN3         -1.6630     0.0000     1.1830 hn         1 U1S       0.363500
     25 C15         -4.4750    -8.2290     6.1160 c3         1 U1S      -0.096100
     26 HAV         -1.1550    -4.9700     8.1270 hc         1 U1S       0.072700
     27 HAK          1.1110    -5.9060     7.9380 hc         1 U1S       0.064200
     28 HAKA         1.1630    -5.4640     6.2220 hc         1 U1S       0.064200
     29 HAM          0.8680    -3.5310     8.5480 h1         1 U1S       0.038200
     30 HAMA         2.3370    -3.7820     7.5890 h1         1 U1S       0.038200
     31 HAJ         -2.3220    -4.1270     6.1350 hc         1 U1S       0.064200
     32 HAJA        -0.8740    -4.4090     5.1530 hc         1 U1S       0.064200
     33 HAL         -1.0690    -2.5250     7.5300 h1         1 U1S       0.038200
     34 HALA        -1.0180    -2.0410     5.8260 h1         1 U1S       0.038200
     35 H4'         -0.0570    -0.4750     5.5160 h1         1 U1S       0.101700
     36 H3'          2.6320     0.7290     6.3220 h1         1 U1S       0.062700
     37 HO3'         1.3160     2.2310     7.1710 ho         1 U1S       0.408000
     38 H2'          0.8570     1.7540     4.0530 h1         1 U1S       0.088700
     39 HO2'         2.5390     3.1080     4.1980 ho         1 U1S       0.417000
     40 H1'          3.1420    -0.0980     3.4630 h2         1 U1S       0.099700
     41 C16         -2.9500    -8.1450     6.1890 c3         1 U1S       0.145400
     42 H21         -4.7700    -9.2410     5.8640 hc         1 U1S       0.046700
     43 H22         -4.8390    -7.5470     5.3570 hc         1 U1S       0.046700
     44 H23         -4.8980    -7.9590     7.0770 hc         1 U1S       0.046700
     45 H24         -2.5300    -8.3560     5.2130 h1         1 U1S       0.048700
     46 H25         -2.5810    -8.8700     6.9050 h1         1 U1S       0.048700
     47 C5'          1.3310    -1.4910     6.8290 c3         1 U1S       0.165800
     48 C17         -1.2430    -6.5680     6.7170 c          1 U1S       0.635100
     49 H5'          2.4050    -1.5670     6.9500 h1         1 U1S       0.043700
     50 H5'A         0.8950    -1.0800     7.7320 h1         1 U1S       0.043700
     51 O6          -2.5590    -6.8100     6.6050 os         1 U1S      -0.432900
     52 O7          -0.4450    -7.4430     6.4760 o          1 U1S      -0.551000
@<TRIPOS>BOND
     1     1     2 1
     2     1     5 1
     3     1    19 2
     4     2     3 2
     5     2    22 1
     6     3     4 1
     7     3    23 1
     8     4    18 1
     9     4    20 1
    10     5    20 1
    11     5    24 1
    12     6     7 1
    13     6     9 1
    14     6    48 1
    15     6    26 1
    16     7     8 1
    17     7    27 1
    18     7    28 1
    19     8    11 1
    20     8    29 1
    21     8    30 1
    22     9    10 1
    23     9    31 1
    24     9    32 1
    25    10    11 1
    26    10    33 1
    27    10    34 1
    28    11    47 1
    29    47    12 1
    30    47    49 1
    31    47    50 1
    32    12    13 1
    33    12    14 1
    34    12    35 1
    35    13    18 1
    36    14    15 1
    37    14    16 1
    38    14    36 1
    39    15    37 1
    40    16    17 1
    41    16    18 1
    42    16    38 1
    43    17    39 1
    44    18    40 1
    45    20    21 2
    46    25    41 1
    47    41    51 1
    48    51    48 1
    49    48    52 2
    50    25    42 1
    51    25    43 1
    52    25    44 1
    53    41    45 1
    54    41    46 1
@<TRIPOS>SUBSTRUCTURE
     1 U1S         1 TEMP              0 ****  ****    0 ROOT
