@<TRIPOS>MOLECULE
U1S
   52    54     1     0     0
SMALL
bcc


@<TRIPOS>ATOM
      1 C4           0.0000     0.0000     0.0000 c          1 U1S       0.613700
      2 C5           1.4160     0.0000     0.0000 cc         1 U1S      -0.298200
      3 C6           2.0730     0.0000     1.1800 cd         1 U1S      -0.077400
      4 N1           1.3640     0.0000     2.3510 n          1 U1S       0.024000
      5 N3          -0.6620     0.0000     1.1750 ns         1 U1S      -0.129500
      6 CAV         -0.7620    -5.2060     7.1460 c3         1 U1S      -0.097700
      7 CAK          0.7690    -5.1960     7.1950 c3         1 U1S      -0.015400
      8 CAM          1.2540    -3.7950     7.5710 c3         1 U1S       0.147800
      9 CAJ         -1.2390    -4.1550     6.1400 c3         1 U1S      -0.015400
     10 CAL         -0.6950    -2.7830     6.5460 c3         1 U1S       0.147800
     11 NBA          0.7710    -2.8250     6.5780 n3         1 U1S      -0.527600
     12 C4'          1.0140    -0.5730     5.6460 c3         1 U1S       0.158100
     13 O4'          1.6130    -1.0840     4.4440 os         1 U1S      -0.363600
     14 C3'          1.6570     0.8200     5.8580 c3         1 U1S       0.139100
     15 O3'          0.7960     1.6750     6.6140 oh         1 U1S      -0.567800
     16 C2'          1.7860     1.3120     4.3910 c3         1 U1S       0.107100
     17 O2'          2.8740     2.2280     4.2560 oh         1 U1S      -0.582800
     18 C1'          2.0760    -0.0000     3.6300 c3         1 U1S       0.226500
     19 O4          -0.6140     0.0050    -1.0510 o          1 U1S      -0.655500
     20 C2           0.0180     0.0010     2.3370 c          1 U1S       0.598500
     21 O2          -0.5920     0.0010     3.3890 o          1 U1S      -0.707500
     22 H5           1.9650    -0.0000    -0.9340 ha         1 U1S       0.151000
     23 H6           3.1560    -0.0000     1.2000 h4         1 U1S       0.134000
     24 HN3         -1.6630     0.0000     1.1830 hn         1 U1S       0.206500
     25 C15         -4.4750    -8.2290     6.1160 c3         1 U1S      -0.004100
     26 HAV         -1.1550    -4.9700     8.1270 hc         1 U1S       0.042700
     27 HAK          1.1110    -5.9060     7.9380 hc         1 U1S       0.032700
     28 HAKA         1.1630    -5.4640     6.2220 hc         1 U1S       0.032700
     29 HAM          0.8680    -3.5310     8.5480 h1         1 U1S       0.013700
     30 HAMA         2.3370    -3.7820     7.5890 h1         1 U1S       0.013700
     31 HAJ         -2.3220    -4.1270     6.1350 hc         1 U1S       0.032700
     32 HAJA        -0.8740    -4.4090     5.1530 hc         1 U1S       0.032700
     33 HAL         -1.0690    -2.5250     7.5300 h1         1 U1S       0.013700
     34 HALA        -1.0180    -2.0410     5.8260 h1         1 U1S       0.013700
     35 H4'         -0.0570    -0.4750     5.5160 h1         1 U1S       0.074700
     36 H3'          2.6320     0.7290     6.3220 h1         1 U1S       0.028700
     37 HO3'         1.3160     2.2310     7.1710 ho         1 U1S       0.393000
     38 H2'          0.8570     1.7540     4.0530 h1         1 U1S       0.054700
     39 HO2'         2.5390     3.1080     4.1980 ho         1 U1S       0.401000
     40 H1'          3.1420    -0.0980     3.4630 h2         1 U1S       0.055700
     41 C16         -2.9500    -8.1450     6.1890 c3         1 U1S       0.225400
     42 H21         -4.7700    -9.2410     5.8640 hc         1 U1S       0.010367
     43 H22         -4.8390    -7.5470     5.3570 hc         1 U1S       0.010367
     44 H23         -4.8980    -7.9590     7.0770 hc         1 U1S       0.010367
     45 H24         -2.5300    -8.3560     5.2130 h1         1 U1S       0.009200
     46 H25         -2.5810    -8.8700     6.9050 h1         1 U1S       0.009200
     47 C5'          1.3310    -1.4910     6.8290 c3         1 U1S       0.148800
     48 C17         -1.2430    -6.5680     6.7170 c          1 U1S       0.699100
     49 H5'          2.4050    -1.5670     6.9500 h1         1 U1S       0.016700
     50 H5'A         0.8950    -1.0800     7.7320 h1         1 U1S       0.016700
     51 O6          -2.5590    -6.8100     6.6050 os         1 U1S      -0.415900
     52 O7          -0.4450    -7.4430     6.4760 o          1 U1S      -0.586000
@<TRIPOS>BOND
     1     1     2 1   
     2     1     5 1   
     3     1    19 2   
     4     2     3 2   
     5     2    22 1   
     6     3     4 1   
     7     3    23 1   
     8     4    18 1   
     9     4    20 1   
    10     5    20 1   
    11     5    24 1   
    12     6     7 1   
    13     6     9 1   
    14     6    26 1   
    15     6    48 1   
    16     7     8 1   
    17     7    27 1   
    18     7    28 1   
    19     8    11 1   
    20     8    29 1   
    21     8    30 1   
    22     9    10 1   
    23     9    31 1   
    24     9    32 1   
    25    10    11 1   
    26    10    33 1   
    27    10    34 1   
    28    11    47 1   
    29    12    13 1   
    30    12    14 1   
    31    12    35 1   
    32    12    47 1   
    33    13    18 1   
    34    14    15 1   
    35    14    16 1   
    36    14    36 1   
    37    15    37 1   
    38    16    17 1   
    39    16    18 1   
    40    16    38 1   
    41    17    39 1   
    42    18    40 1   
    43    20    21 2   
    44    25    41 1   
    45    25    42 1   
    46    25    43 1   
    47    25    44 1   
    48    41    45 1   
    49    41    46 1   
    50    41    51 1   
    51    47    49 1   
    52    47    50 1   
    53    48    51 1   
    54    48    52 2   
@<TRIPOS>SUBSTRUCTURE
     1 U1S         1 TEMP              0 ****  ****    0 ROOT
