@<TRIPOS>MOLECULE
U1T
   46    49     1     0     0
SMALL
bcc


@<TRIPOS>ATOM
      1 C13          0.0000     0.0000     0.0000 c3         1 U1T       0.147300
      2 C14          1.5400     0.0000     0.0000 c3         1 U1T      -0.028400
      3 C15          1.9430     0.0000     1.4920 c3         1 U1T      -0.028400
      4 C16          0.6830    -0.5650     2.1920 c3         1 U1T       0.147300
      5 N2          -0.4340     0.0290     1.4140 n3         1 U1T      -0.538600
      6 C12         -1.6730    -0.7380     1.6010 c3         1 U1T       0.209100
      7 C9          -2.2150    -0.4860     2.9840 ca         1 U1T      -0.079300
      8 C10         -3.1000     0.5560     3.1980 ca         1 U1T      -0.082500
      9 C11         -3.6010     0.7900     4.4610 ca         1 U1T      -0.094000
     10 C8          -1.8310    -1.3020     4.0330 ca         1 U1T      -0.082500
     11 C7          -2.3250    -1.0780     5.3020 ca         1 U1T      -0.094000
     12 C6          -3.2130    -0.0250     5.5260 ca         1 U1T      -0.063800
     13 C5          -3.7460     0.2210     6.8820 cc         1 U1T      -0.052600
     14 C4          -3.3530    -0.5870     7.8990 cd         1 U1T      -0.176200
     15 C3          -3.8730    -0.3520     9.2430 ca         1 U1T       0.005200
     16 C17         -3.5040    -1.1510    10.3270 ca         1 U1T      -0.099300
     17 C21         -2.5420    -2.2940    10.1330 c3         1 U1T       0.065200
     18 C18         -4.0180    -0.8900    11.5660 ca         1 U1T      -0.070000
     19 C19         -4.9060     0.1610    11.7630 ca         1 U1T      -0.124000
     20 C20         -5.2890     0.9670    10.7120 ca         1 U1T      -0.029000
     21 C2          -4.7770     0.7200     9.4390 ca         1 U1T      -0.163600
     22 C1          -5.1480     1.5440     8.2820 c          1 U1T       0.615100
     23 O1          -5.9220     2.4730     8.4130 o          1 U1T      -0.685500
     24 N1          -4.6190     1.2650     7.0750 ns         1 U1T       0.027900
     25 H131        -0.3680    -0.8990    -0.4800 h1         1 U1T       0.013950
     26 H132        -0.3680     0.8790    -0.5160 h1         1 U1T       0.013950
     27 H141         1.9150     0.8910    -0.4890 hc         1 U1T       0.019200
     28 H142         1.9150    -0.8910    -0.4890 hc         1 U1T       0.019200
     29 H151         2.7950    -0.6490     1.6580 hc         1 U1T       0.019200
     30 H152         2.1490     1.0080     1.8320 hc         1 U1T       0.019200
     31 H161         0.6420    -0.2400     3.2250 h1         1 U1T       0.013950
     32 H162         0.6610    -1.6460     2.1230 h1         1 U1T       0.013950
     33 H121        -1.4650    -1.7940     1.4810 h1         1 U1T       0.014200
     34 H122        -2.4040    -0.4270     0.8640 h1         1 U1T       0.014200
     35 H10         -3.4010     1.1880     2.3710 ha         1 U1T       0.110000
     36 H8          -1.1410    -2.1190     3.8580 ha         1 U1T       0.110000
     37 H11         -4.2920     1.6080     4.6270 ha         1 U1T       0.111000
     38 H7          -2.0210    -1.7160     6.1230 ha         1 U1T       0.111000
     39 H4          -2.5510    -1.2990     7.7450 ha         1 U1T       0.135000
     40 H1          -4.8700     1.8360     6.2920 hn         1 U1T       0.178500
     41 H211        -1.5870    -1.9100     9.7960 hc         1 U1T       0.008367
     42 H212        -2.9380    -2.9780     9.3920 hc         1 U1T       0.008367
     43 H213        -2.4090    -2.8180    11.0720 hc         1 U1T       0.008367
     44 H18         -3.7300    -1.5100    12.4060 ha         1 U1T       0.104000
     45 H19         -5.3010     0.3500    12.7540 ha         1 U1T       0.106000
     46 H20         -5.9810     1.7840    10.8740 ha         1 U1T       0.125000
@<TRIPOS>BOND
     1     1     2 1   
     2     1     5 1   
     3     1    25 1   
     4     1    26 1   
     5     2     3 1   
     6     2    27 1   
     7     2    28 1   
     8     3     4 1   
     9     3    29 1   
    10     3    30 1   
    11     4     5 1   
    12     4    31 1   
    13     4    32 1   
    14     5     6 1   
    15     6     7 1   
    16     6    33 1   
    17     6    34 1   
    18     7     8 ar  
    19     7    10 ar  
    20     8     9 ar  
    21     8    35 1   
    22     9    12 ar  
    23     9    37 1   
    24    10    11 ar  
    25    10    36 1   
    26    11    12 ar  
    27    11    38 1   
    28    12    13 1   
    29    13    14 2   
    30    13    24 1   
    31    14    15 1   
    32    14    39 1   
    33    15    16 ar  
    34    15    21 ar  
    35    16    17 1   
    36    16    18 ar  
    37    17    41 1   
    38    17    42 1   
    39    17    43 1   
    40    18    19 ar  
    41    18    44 1   
    42    19    20 ar  
    43    19    45 1   
    44    20    21 ar  
    45    20    46 1   
    46    21    22 1   
    47    22    23 2   
    48    22    24 1   
    49    24    40 1   
@<TRIPOS>SUBSTRUCTURE
     1 U1T         1 TEMP              0 ****  ****    0 ROOT
