@<TRIPOS>MOLECULE
molecule
   46    49     1     0     0
SMALL
bcc


@<TRIPOS>ATOM
      1 C13          0.0000     0.0000     0.0000 c3         1 U1T       0.143800
      2 C14          1.5400     0.0000     0.0000 c3         1 U1T      -0.087900
      3 C15          1.9430     0.0000     1.4920 c3         1 U1T      -0.087900
      4 C16          0.6830    -0.5650     2.1920 c3         1 U1T       0.143800
      5 N2          -0.4340     0.0290     1.4140 n3         1 U1T      -0.699600
      6 C12         -1.6730    -0.7380     1.6010 c3         1 U1T       0.196100
      7 C9          -2.2150    -0.4860     2.9840 ca         1 U1T      -0.064300
      8 C10         -3.1000     0.5560     3.1980 ca         1 U1T      -0.112000
      9 C11         -3.6010     0.7900     4.4610 ca         1 U1T      -0.113500
     10 C8          -1.8310    -1.3020     4.0330 ca         1 U1T      -0.112000
     11 C7          -2.3250    -1.0780     5.3020 ca         1 U1T      -0.113500
     12 C6          -3.2130    -0.0250     5.5260 ca         1 U1T      -0.069800
     13 C5          -3.7460     0.2210     6.8820 cc         1 U1T       0.103400
     14 C4          -3.3530    -0.5870     7.8990 cd         1 U1T      -0.198200
     15 C3          -3.8730    -0.3520     9.2430 ca         1 U1T       0.002200
     16 C17         -3.5040    -1.1510    10.3270 ca         1 U1T      -0.092300
     17 C21         -2.5420    -2.2940    10.1330 c3         1 U1T      -0.044800
     18 C18         -4.0180    -0.8900    11.5660 ca         1 U1T      -0.096000
     19 C19         -4.9060     0.1610    11.7630 ca         1 U1T      -0.149000
     20 C20         -5.2890     0.9670    10.7120 ca         1 U1T      -0.061000
     21 C2          -4.7770     0.7200     9.4390 ca         1 U1T      -0.156600
     22 C1          -5.1480     1.5440     8.2820 c          1 U1T       0.711100
     23 O1          -5.9220     2.4730     8.4130 o          1 U1T      -0.640500
     24 N1          -4.6190     1.2650     7.0750 ns         1 U1T      -0.437100
     25 H131        -0.3680    -0.8990    -0.4800 h1         1 U1T       0.042200
     26 H132        -0.3680     0.8790    -0.5160 h1         1 U1T       0.042200
     27 H141         1.9150     0.8910    -0.4890 hc         1 U1T       0.049950
     28 H142         1.9150    -0.8910    -0.4890 hc         1 U1T       0.049950
     29 H151         2.7950    -0.6490     1.6580 hc         1 U1T       0.049950
     30 H152         2.1490     1.0080     1.8320 hc         1 U1T       0.049950
     31 H161         0.6420    -0.2400     3.2250 h1         1 U1T       0.042200
     32 H162         0.6610    -1.6460     2.1230 h1         1 U1T       0.042200
     33 H121        -1.4650    -1.7940     1.4810 h1         1 U1T       0.042700
     34 H122        -2.4040    -0.4270     0.8640 h1         1 U1T       0.042700
     35 H10         -3.4010     1.1880     2.3710 ha         1 U1T       0.137000
     36 H8          -1.1410    -2.1190     3.8580 ha         1 U1T       0.137000
     37 H11         -4.2920     1.6080     4.6270 ha         1 U1T       0.133000
     38 H7          -2.0210    -1.7160     6.1230 ha         1 U1T       0.133000
     39 H4          -2.5510    -1.2990     7.7450 ha         1 U1T       0.152000
     40 H1          -4.8700     1.8360     6.2920 hn         1 U1T       0.336500
     41 H211        -1.5870    -1.9100     9.7960 hc         1 U1T       0.043700
     42 H212        -2.9380    -2.9780     9.3920 hc         1 U1T       0.043700
     43 H213        -2.4090    -2.8180    11.0720 hc         1 U1T       0.043700
     44 H18         -3.7300    -1.5100    12.4060 ha         1 U1T       0.131000
     45 H19         -5.3010     0.3500    12.7540 ha         1 U1T       0.134000
     46 H20         -5.9810     1.7840    10.8740 ha         1 U1T       0.155000
@<TRIPOS>BOND
     1     1     2 1
     2     1     5 1
     3     2     3 1
     4     3     4 1
     5     4     5 1
     6     5     6 1
     7     6     7 1
     8     7     8 ar
     9     7    10 ar
    10     8     9 ar
    11     9    12 ar
    12    10    11 ar
    13    11    12 ar
    14    12    13 1
    15    13    14 2
    16    13    24 1
    17    14    15 1
    18    15    16 ar
    19    15    21 ar
    20    16    17 1
    21    16    18 ar
    22    18    19 ar
    23    19    20 ar
    24    20    21 ar
    25    21    22 1
    26    22    23 2
    27    22    24 1
    28     1    25 1
    29     1    26 1
    30     2    27 1
    31     2    28 1
    32     3    29 1
    33     3    30 1
    34     4    31 1
    35     4    32 1
    36     6    33 1
    37     6    34 1
    38     8    35 1
    39    10    36 1
    40     9    37 1
    41    11    38 1
    42    14    39 1
    43    24    40 1
    44    17    41 1
    45    17    42 1
    46    17    43 1
    47    18    44 1
    48    19    45 1
    49    20    46 1
@<TRIPOS>SUBSTRUCTURE
     1 U1T         1 TEMP              0 ****  ****    0 ROOT
