@<TRIPOS>MOLECULE
U2S
   41    43     1     0     0
SMALL
bcc


@<TRIPOS>ATOM
      1 C4           0.0000     0.0000     0.0000 c          1 U2S       0.613700
      2 C5           1.4160     0.0000     0.0000 cc         1 U2S      -0.298200
      3 C6           2.0730     0.0000     1.1790 cd         1 U2S      -0.077400
      4 N1           1.3640     0.0010     2.3500 n          1 U2S       0.023000
      5 N3          -0.6620     0.0010     1.1750 ns         1 U2S      -0.130500
      6 OAM         -0.6090    -5.1690     7.2910 os         1 U2S      -0.414600
      7 CAK         -1.2670    -4.1910     6.4820 c3         1 U2S       0.215400
      8 CAM         -0.6990    -2.8060     6.8020 c3         1 U2S       0.107300
      9 CAJ          0.8090    -5.2080     7.1080 c3         1 U2S       0.215400
     10 CAL          1.3990    -3.8330     7.4330 c3         1 U2S       0.107300
     11 NBA          0.7550    -2.8170     6.5880 n3         1 U2S      -0.524600
     12 C5'          1.3330    -1.4880     6.8290 c3         1 U2S       0.146800
     13 C4'          1.0150    -0.5710     5.6460 c3         1 U2S       0.161100
     14 O4'          1.6140    -1.0820     4.4440 os         1 U2S      -0.365600
     15 C3'          1.6580     0.8220     5.8580 c3         1 U2S       0.138100
     16 O3'          0.7990     1.6770     6.6130 oh         1 U2S      -0.566800
     17 C2'          1.7880     1.3130     4.3900 c3         1 U2S       0.108100
     18 O2'          2.8750     2.2300     4.2530 oh         1 U2S      -0.583800
     19 C1'          2.0770     0.0010     3.6290 c3         1 U2S       0.226500
     20 O4          -0.6150     0.0050    -1.0510 o          1 U2S      -0.655500
     21 C2           0.0180     0.0020     2.3370 c          1 U2S       0.598500
     22 O2          -0.5910     0.0020     3.3880 o          1 U2S      -0.704500
     23 H5           1.9650    -0.0010    -0.9340 ha         1 U2S       0.150000
     24 H6           3.1560    -0.0000     1.1980 h4         1 U2S       0.134000
     25 HN3         -1.6630     0.0020     1.1830 hn         1 U2S       0.206500
     26 HAKA        -2.3300    -4.2030     6.6950 h1         1 U2S       0.012950
     27 HAM         -0.9090    -2.5600     7.8350 h1         1 U2S       0.018950
     28 HAMA        -1.1530    -2.0700     6.1490 h1         1 U2S       0.018950
     29 HAJ          1.0330    -5.4620     6.0790 h1         1 U2S       0.012950
     30 HAJA         1.2380    -5.9490     7.7710 h1         1 U2S       0.012950
     31 HAL          1.2180    -3.6010     8.4760 h1         1 U2S       0.018950
     32 HALA         2.4640    -3.8420     7.2380 h1         1 U2S       0.018950
     33 H5'          2.4070    -1.5760     6.9380 h1         1 U2S       0.017700
     34 H5'A         0.9110    -1.0690     7.7340 h1         1 U2S       0.017700
     35 H4'         -0.0560    -0.4720     5.5170 h1         1 U2S       0.073700
     36 H3'          2.6330     0.7300     6.3210 h1         1 U2S       0.027700
     37 HO3'         1.3170     2.2060     7.1970 ho         1 U2S       0.393000
     38 H2'          0.8580     1.7550     4.0510 h1         1 U2S       0.054700
     39 HO2'         2.5400     3.1100     4.1990 ho         1 U2S       0.402000
     40 H1'          3.1430    -0.0970     3.4620 h2         1 U2S       0.054700
     41 HAK         -1.1000    -4.4170     5.4360 h1         1 U2S       0.012950
@<TRIPOS>BOND
     1     1     2 1   
     2     1     5 1   
     3     1    20 2   
     4     2     3 2   
     5     2    23 1   
     6     3     4 1   
     7     3    24 1   
     8     4    19 1   
     9     4    21 1   
    10     5    21 1   
    11     5    25 1   
    12     6     7 1   
    13     6     9 1   
    14     7     8 1   
    15     7    26 1   
    16     7    41 1   
    17     8    11 1   
    18     8    27 1   
    19     8    28 1   
    20     9    10 1   
    21     9    29 1   
    22     9    30 1   
    23    10    11 1   
    24    10    31 1   
    25    10    32 1   
    26    11    12 1   
    27    12    13 1   
    28    12    33 1   
    29    12    34 1   
    30    13    14 1   
    31    13    15 1   
    32    13    35 1   
    33    14    19 1   
    34    15    16 1   
    35    15    17 1   
    36    15    36 1   
    37    16    37 1   
    38    17    18 1   
    39    17    19 1   
    40    17    38 1   
    41    18    39 1   
    42    19    40 1   
    43    21    22 2   
@<TRIPOS>SUBSTRUCTURE
     1 U2S         1 TEMP              0 ****  ****    0 ROOT
