@<TRIPOS>MOLECULE
molecule
   41    43     1     0     0
SMALL
bcc


@<TRIPOS>ATOM
      1 C4           0.0000     0.0000     0.0000 c          1 U2S       0.703700
      2 C5           1.4160     0.0000     0.0000 cc         1 U2S      -0.326200
      3 C6           2.0730     0.0000     1.1790 cd         1 U2S       0.044600
      4 N1           1.3640     0.0010     2.3500 n          1 U2S      -0.376000
      5 N3          -0.6620     0.0010     1.1750 ns         1 U2S      -0.561500
      6 OAM         -0.6090    -5.1690     7.2910 os         1 U2S      -0.426600
      7 CAK         -1.2670    -4.1910     6.4820 c3         1 U2S       0.139900
      8 CAM         -0.6990    -2.8060     6.8020 c3         1 U2S       0.122300
      9 CAJ          0.8090    -5.2080     7.1080 c3         1 U2S       0.139900
     10 CAL          1.3990    -3.8330     7.4330 c3         1 U2S       0.122300
     11 NBA          0.7550    -2.8170     6.5880 n3         1 U2S      -0.716600
     12 C5'          1.3330    -1.4880     6.8290 c3         1 U2S       0.164800
     13 C4'          1.0150    -0.5710     5.6460 c3         1 U2S       0.140100
     14 O4'          1.6140    -1.0820     4.4440 os         1 U2S      -0.372600
     15 C3'          1.6580     0.8220     5.8580 c3         1 U2S       0.095100
     16 O3'          0.7990     1.6770     6.6130 oh         1 U2S      -0.585800
     17 C2'          1.7880     1.3130     4.3900 c3         1 U2S       0.077100
     18 O2'          2.8750     2.2300     4.2530 oh         1 U2S      -0.604800
     19 C1'          2.0770     0.0010     3.6290 c3         1 U2S       0.313500
     20 O4          -0.6150     0.0050    -1.0510 o          1 U2S      -0.618500
     21 C2           0.0180     0.0020     2.3370 c          1 U2S       0.813500
     22 O2          -0.5910     0.0020     3.3880 o          1 U2S      -0.655500
     23 H5           1.9650    -0.0010    -0.9340 ha         1 U2S       0.179000
     24 H6           3.1560    -0.0000     1.1980 h4         1 U2S       0.166000
     25 HN3         -1.6630     0.0020     1.1830 hn         1 U2S       0.363500
     26 HAKA        -2.3300    -4.2030     6.6950 h1         1 U2S       0.054450
     27 HAM         -0.9090    -2.5600     7.8350 h1         1 U2S       0.043700
     28 HAMA        -1.1530    -2.0700     6.1490 h1         1 U2S       0.043700
     29 HAJ          1.0330    -5.4620     6.0790 h1         1 U2S       0.054450
     30 HAJA         1.2380    -5.9490     7.7710 h1         1 U2S       0.054450
     31 HAL          1.2180    -3.6010     8.4760 h1         1 U2S       0.043700
     32 HALA         2.4640    -3.8420     7.2380 h1         1 U2S       0.043700
     33 H5'          2.4070    -1.5760     6.9380 h1         1 U2S       0.044200
     34 H5'A         0.9110    -1.0690     7.7340 h1         1 U2S       0.044200
     35 H4'         -0.0560    -0.4720     5.5170 h1         1 U2S       0.101700
     36 H3'          2.6330     0.7300     6.3210 h1         1 U2S       0.060700
     37 HO3'         1.3170     2.2060     7.1970 ho         1 U2S       0.408000
     38 H2'          0.8580     1.7550     4.0510 h1         1 U2S       0.089700
     39 HO2'         2.5400     3.1100     4.1990 ho         1 U2S       0.417000
     40 H1'          3.1430    -0.0970     3.4620 h2         1 U2S       0.098700
     41 HAK         -1.1000    -4.4170     5.4360 h1         1 U2S       0.054450
@<TRIPOS>BOND
     1     1     2 1
     2     1     5 1
     3     1    20 2
     4     2     3 2
     5     3     4 1
     6     4    19 1
     7     4    21 1
     8     5    21 1
     9     6     7 1
    10     6     9 1
    11     7     8 1
    12     8    11 1
    13     9    10 1
    14    10    11 1
    15    11    12 1
    16    12    13 1
    17    13    14 1
    18    13    15 1
    19    14    19 1
    20    15    16 1
    21    15    17 1
    22    17    18 1
    23    17    19 1
    24    21    22 2
    25     2    23 1
    26     3    24 1
    27     5    25 1
    28     7    41 1
    29     7    26 1
    30     8    27 1
    31     8    28 1
    32     9    29 1
    33     9    30 1
    34    10    31 1
    35    10    32 1
    36    12    33 1
    37    12    34 1
    38    13    35 1
    39    15    36 1
    40    16    37 1
    41    17    38 1
    42    18    39 1
    43    19    40 1
@<TRIPOS>SUBSTRUCTURE
     1 U2S         1 TEMP              0 ****  ****    0 ROOT
