@<TRIPOS>MOLECULE
U2Z
   32    33     1     0     0
SMALL
bcc


@<TRIPOS>ATOM
      1 C12          0.0000     0.0000     0.0000 ca         1 U2Z      -0.075000
      2 C11          1.3820     0.0000     0.0000 ca         1 U2Z      -0.032000
      3 C13         -0.6940    -0.0010     1.1970 ca         1 U2Z      -0.053000
      4 C10          2.0750     0.0000     1.1960 ca         1 U2Z      -0.086000
      5 C3           3.4950     0.5050     5.1990 cc         1 U2Z      -0.275300
      6 C14         -0.0070    -0.0010     2.3960 ca         1 U2Z      -0.186300
      7 C9           1.3810    -0.0010     2.3980 ca         1 U2Z      -0.100200
      8 C4           2.7020    -0.5580     5.6440 cc         1 U2Z       0.387600
      9 C2           3.0940     0.8290     3.9480 cd         1 U2Z      -0.243600
     10 C1           3.6730     1.9190     3.0830 c3         1 U2Z       0.093200
     11 C15         -0.7640    -0.0010     3.6980 c3         1 U2Z      -0.000900
     12 C5           2.8050    -1.2360     6.9860 c3         1 U2Z       0.213100
     13 N7           1.8540    -0.8620     4.6950 nd         1 U2Z      -0.694800
     14 N8           2.0810    -0.0010     3.6130 na         1 U2Z       0.540300
     15 N16         -0.8020     1.3620     4.2420 nz         1 U2Z       0.074400
     16 O6           3.8480    -0.6260     7.7490 oh         1 U2Z      -0.590800
     17 H12         -0.5410     0.0000    -0.9390 ha         1 U2Z       0.129000
     18 H11          1.9230     0.0000    -0.9390 ha         1 U2Z       0.128000
     19 H13         -1.7770    -0.0010     1.1940 ha         1 U2Z       0.115000
     20 H10          3.1590     0.0000     1.1950 ha         1 U2Z       0.137000
     21 H3           4.3180     0.9550     5.7400 ha         1 U2Z       0.167000
     22 H151        -1.7760    -0.3500     3.5280 hx         1 U2Z       0.105200
     23 H152        -0.2700    -0.6580     4.4030 hx         1 U2Z       0.105200
     24 H51C         1.8650    -1.1360     7.5140 h1         1 U2Z       0.003700
     25 H52C         3.0290    -2.2860     6.8440 h1         1 U2Z       0.003700
     26 H11C         4.3370     1.4820     2.3470 hc         1 U2Z       0.019700
     27 H12C         4.2280     2.6150     3.7010 hc         1 U2Z       0.019700
     28 H13C         2.8710     2.4450     2.5790 hc         1 U2Z       0.019700
     29 H161        -0.2540     1.9680     3.6640 hn         1 U2Z       0.222467
     30 H162        -1.7480     1.6870     4.2630 hn         1 U2Z       0.222467
     31 H6           3.9090    -1.0470     8.5910 ho         1 U2Z       0.410000
     32 H163        -0.4370     1.3600     5.1740 hn         1 U2Z       0.222467
@<TRIPOS>BOND
     1     1     2 ar  
     2     1     3 ar  
     3     1    17 1   
     4     2     4 ar  
     5     2    18 1   
     6     3     6 ar  
     7     3    19 1   
     8     4     7 ar  
     9     4    20 1   
    10     5     8 1   
    11     5     9 2   
    12     5    21 1   
    13     6     7 ar  
    14     6    11 1   
    15     7    14 1   
    16     8    12 1   
    17     8    13 2   
    18     9    10 1   
    19     9    14 1   
    20    10    26 1   
    21    10    27 1   
    22    10    28 1   
    23    11    15 1   
    24    11    22 1   
    25    11    23 1   
    26    12    16 1   
    27    12    24 1   
    28    12    25 1   
    29    13    14 1   
    30    15    29 1   
    31    15    30 1   
    32    15    32 1   
    33    16    31 1   
@<TRIPOS>SUBSTRUCTURE
     1 U2Z         1 TEMP              0 ****  ****    0 ROOT
