@<TRIPOS>MOLECULE
molecule
   32    33     1     0     0
SMALL
bcc


@<TRIPOS>ATOM
      1 C12          0.0000     0.0000     0.0000 ca         1 U2Z      -0.118000
      2 C11          1.3820     0.0000     0.0000 ca         1 U2Z      -0.065000
      3 C13         -0.6940    -0.0010     1.1970 ca         1 U2Z      -0.085000
      4 C10          2.0750     0.0000     1.1960 ca         1 U2Z      -0.127000
      5 C3           3.4950     0.5050     5.1990 cc         1 U2Z      -0.296300
      6 C14         -0.0070    -0.0010     2.3960 ca         1 U2Z      -0.191300
      7 C9           1.3810    -0.0010     2.3980 ca         1 U2Z       0.064800
      8 C4           2.7020    -0.5580     5.6440 cc         1 U2Z       0.368600
      9 C2           3.0940     0.8290     3.9480 cd         1 U2Z      -0.074600
     10 C1           3.6730     1.9190     3.0830 c3         1 U2Z      -0.032800
     11 C15         -0.7640    -0.0010     3.6980 c3         1 U2Z       0.152100
     12 C5           2.8050    -1.2360     6.9860 c3         1 U2Z       0.121100
     13 N7           1.8540    -0.8620     4.6950 nd         1 U2Z      -0.552800
     14 N8           2.0810    -0.0010     3.6130 na         1 U2Z       0.095300
     15 N16         -0.8020     1.3620     4.2420 nz         1 U2Z      -0.807600
     16 O6           3.8480    -0.6260     7.7490 oh         1 U2Z      -0.603800
     17 H12         -0.5410     0.0000    -0.9390 ha         1 U2Z       0.163000
     18 H11          1.9230     0.0000    -0.9390 ha         1 U2Z       0.165000
     19 H13         -1.7770    -0.0010     1.1940 ha         1 U2Z       0.145000
     20 H10          3.1590     0.0000     1.1950 ha         1 U2Z       0.167000
     21 H3           4.3180     0.9550     5.7400 ha         1 U2Z       0.193000
     22 H151        -1.7760    -0.3500     3.5280 hx         1 U2Z       0.127200
     23 H152        -0.2700    -0.6580     4.4030 hx         1 U2Z       0.127200
     24 H51C         1.8650    -1.1360     7.5140 h1         1 U2Z       0.047700
     25 H52C         3.0290    -2.2860     6.8440 h1         1 U2Z       0.047700
     26 H11C         4.3370     1.4820     2.3470 hc         1 U2Z       0.061033
     27 H12C         4.2280     2.6150     3.7010 hc         1 U2Z       0.061033
     28 H13C         2.8710     2.4450     2.5790 hc         1 U2Z       0.061033
     29 H161        -0.2540     1.9680     3.6640 hn         1 U2Z       0.453467
     30 H162        -1.7480     1.6870     4.2630 hn         1 U2Z       0.453467
     31 H6           3.9090    -1.0470     8.5910 ho         1 U2Z       0.425000
     32 H163        -0.4370     1.3600     5.1740 hn         1 U2Z       0.453467
@<TRIPOS>BOND
     1     1     2 ar
     2     1     3 ar
     3     2     4 ar
     4     3     6 ar
     5     4     7 ar
     6     5     8 1
     7     5     9 2
     8     6     7 ar
     9     6    11 1
    10     7    14 1
    11     8    12 1
    12     8    13 2
    13     9    10 1
    14     9    14 1
    15    11    15 1
    16    12    16 1
    17    13    14 1
    18     1    17 1
    19     2    18 1
    20     3    19 1
    21     4    20 1
    22     5    21 1
    23    11    22 1
    24    11    23 1
    25    12    24 1
    26    12    25 1
    27    10    26 1
    28    10    27 1
    29    10    28 1
    30    15    29 1
    31    15    30 1
    32    16    31 1
    33    32    15 1
@<TRIPOS>SUBSTRUCTURE
     1 U2Z         1 TEMP              0 ****  ****    0 ROOT
