@<TRIPOS>MOLECULE
molecule
   35    36     1     0     0
SMALL
bcc


@<TRIPOS>ATOM
      1 O1           0.0000     0.0000     0.0000 o          1 U32      -0.526300
      2 O2           2.2430     0.0000     1.1590 o          1 U32      -0.526300
      3 C2          -0.0160     6.5920    -3.8670 cc         1 U32       0.370200
      4 C3           0.5400     7.5350    -4.6650 cd         1 U32      -0.081700
      5 C4          -0.1070     8.6880    -5.3880 c3         1 U32       0.014600
      6 C5           0.5010    10.0030    -4.8960 c3         1 U32      -0.090100
      7 C6           0.1330     8.5460    -6.8920 c3         1 U32      -0.090100
      8 S7           2.2560     7.0380    -4.6180 ss         1 U32      -0.222300
      9 C8           2.0640     5.6610    -3.5780 cd         1 U32       0.670300
     10 N9           0.7660     5.6680    -3.3440 nc         1 U32      -0.771000
     11 N11          1.8710    -1.3330    -0.8710 nz         1 U32      -0.805500
     12 C13          1.0220     1.9790    -1.8370 ca         1 U32      -0.001500
     13 C14          1.8990     1.4210    -0.9260 ca         1 U32      -0.383500
     14 C16          3.1510     1.9780    -0.7380 ca         1 U32      -0.001500
     15 C17          3.5300     3.0890    -1.4650 ca         1 U32      -0.173500
     16 C18          2.6490     3.6530    -2.3780 ca         1 U32       0.270600
     17 C19          1.3940     3.0920    -2.5640 ca         1 U32      -0.173500
     18 S16          1.4220     0.0000     0.0000 sy         1 U32       1.227200
     19 H2          -1.0810     6.5920    -3.6700 h4         1 U32       0.051100
     20 H4          -1.1720     8.6860    -5.1900 hc         1 U32       0.074700
     21 H5C1         1.5550    10.0290    -5.1430 hc         1 U32       0.044867
     22 H5C2         0.3790    10.0780    -3.8230 hc         1 U32       0.044867
     23 H5C3        -0.0020    10.8350    -5.3760 hc         1 U32       0.044867
     24 H6C1        -0.2490     7.5900    -7.2290 hc         1 U32       0.044867
     25 H6C2         1.1950     8.6030    -7.0950 hc         1 U32       0.044867
     26 H6C3        -0.3790     9.3450    -7.4160 hc         1 U32       0.044867
     27 H111         2.8630    -1.3220    -1.0090 hn         1 U32       0.489800
     28 H112         1.4110    -1.3210    -1.7600 hn         1 U32       0.489800
     29 H13          0.0420     1.5410    -1.9820 ha         1 U32       0.155000
     30 H90          3.9950     4.9410    -3.3170 hn         1 U32       0.481800
     31 H16          3.8370     1.5380    -0.0240 ha         1 U32       0.155000
     32 H17          4.5110     3.5250    -1.3170 ha         1 U32       0.179500
     33 H19          0.7050     3.5280    -3.2780 ha         1 U32       0.179500
     34 N90          3.0280     4.7800    -3.1110 nu         1 U32      -0.718300
     35 H113         1.6280    -2.1600    -0.3640 hn         1 U32       0.489800
@<TRIPOS>BOND
     1     1    18 2
     2     2    18 2
     3     3     4 2
     4     3    10 1
     5     3    19 1
     6     4     5 1
     7     4     8 1
     8     5     6 1
     9     5     7 1
    10     5    20 1
    11     6    21 1
    12     6    22 1
    13     6    23 1
    14     7    24 1
    15     7    25 1
    16     7    26 1
    17     8     9 1
    18     9    10 2
    19     9    34 1
    20    11    18 1
    21    11    27 1
    22    11    28 1
    23    12    13 ar
    24    12    17 ar
    25    12    29 1
    26    13    14 ar
    27    13    18 1
    28    34    16 1
    29    34    30 1
    30    14    15 ar
    31    14    31 1
    32    15    16 ar
    33    15    32 1
    34    16    17 ar
    35    17    33 1
    36    35    11 1
@<TRIPOS>SUBSTRUCTURE
     1 U32         1 TEMP              0 ****  ****    0 ROOT
