@<TRIPOS>MOLECULE
U3H
   41    42     1     0     0
SMALL
bcc


@<TRIPOS>ATOM
      1 N1           0.0000     0.0000     0.0000 nh         1 U3H      -0.380400
      2 C6           1.3840     0.0000     0.0000 c2         1 U3H       0.010000
      3 C2          -0.7080    -0.2570     1.2560 c3         1 U3H       0.474700
      4 O2          -1.8890     0.5310     1.3470 oh         1 U3H      -0.601800
      5 N3           0.1230     0.0350     2.4180 ns         1 U3H      -0.307900
      6 C4           1.5030     0.0650     2.4200 c          1 U3H       0.644700
      7 O4           2.1850     0.1690     3.4370 o          1 U3H      -0.746500
      8 C5           2.1570     0.0000     1.0900 ce         1 U3H      -0.259200
      9 C1'         -0.7720    -0.0110    -1.2100 c3         1 U3H       0.360300
     10 C2'         -0.4250     1.1440    -2.1350 c3         1 U3H       0.130100
     11 O2'         -1.2580     2.2610    -1.8950 oh         1 U3H      -0.629800
     12 C3'         -0.6700     0.5380    -3.4980 c3         1 U3H      -0.088400
     13 C4'         -0.2300    -0.9020    -3.3060 c3         1 U3H       0.165100
     14 O4'         -0.4970    -1.2220    -1.9290 os         1 U3H      -0.456600
     15 C5'          1.2540    -1.1160    -3.5730 c3         1 U3H       0.261400
     16 O5'          1.5360    -0.7600    -4.9160 os         1 U3H      -0.505200
     17 PA           3.0460    -0.8860    -5.4840 p5         1 U3H       0.909800
     18 O1A          3.2150    -0.4790    -6.9200 o          1 U3H      -0.713000
     19 O2A          3.4670    -2.4160    -5.1700 o          1 U3H      -0.713000
     20 O3A          3.9440    -0.0350    -4.4460 os         1 U3H      -0.423800
     21 PB           3.9830     1.5450    -4.1140 p5         1 U3H       0.933800
     22 O1B          2.6990     2.1340    -3.6090 o          1 U3H      -0.758000
     23 O2B          4.5540     2.2210    -5.4670 o          1 U3H      -0.758000
     24 O3B          5.2260     1.6300    -3.0850 os         1 U3H      -0.416800
     25 PG           5.4330     1.0380    -1.5950 p5         1 U3H       0.731900
     26 O1G          5.3360    -0.4560    -1.4970 o          1 U3H      -0.779833
     27 O2G          6.8540     1.6650    -1.1470 o          1 U3H      -0.779833
     28 O3G          4.3620     1.8600    -0.7060 o          1 U3H      -0.779833
     29 H6           1.8820    -0.0000    -0.9620 h4         1 U3H       0.209000
     30 H2'         -0.9830    -1.3050     1.2850 h3         1 U3H      -0.048300
     31 H3          -0.3440     0.2300     3.2810 hn         1 U3H       0.135500
     32 H5           3.2020    -0.2730     1.0130 ha         1 U3H       0.198000
     33 H1'         -1.8270     0.0290    -0.9690 h2         1 U3H       0.001700
     34 H2''         0.6190     1.4120    -2.0260 h1         1 U3H       0.128700
     35 HA          -0.7920     3.0520    -2.1100 ho         1 U3H       0.405000
     36 H3'         -0.0610     1.0270    -4.2480 hc         1 U3H       0.034700
     37 H3'2        -1.7210     0.5860    -3.7540 hc         1 U3H       0.034700
     38 H4'         -0.8180    -1.5480    -3.9470 h1         1 U3H      -0.016300
     39 H5'1         1.8370    -0.4950    -2.9040 h1         1 U3H       0.017700
     40 H5'2         1.5050    -2.1570    -3.4130 h1         1 U3H       0.017700
     41 HO5         -2.5160     0.0960     1.9010 ho         1 U3H       0.358000
@<TRIPOS>BOND
     1     1     2 1   
     2     1     3 1   
     3     1     9 1   
     4     2     8 2   
     5     2    29 1   
     6     3     4 1   
     7     3     5 1   
     8     3    30 1   
     9     4    41 1   
    10     5     6 1   
    11     5    31 1   
    12     6     7 2   
    13     6     8 1   
    14     8    32 1   
    15     9    10 1   
    16     9    14 1   
    17     9    33 1   
    18    10    11 1   
    19    10    12 1   
    20    10    34 1   
    21    11    35 1   
    22    12    13 1   
    23    12    36 1   
    24    12    37 1   
    25    13    14 1   
    26    13    15 1   
    27    13    38 1   
    28    15    16 1   
    29    15    39 1   
    30    15    40 1   
    31    16    17 1   
    32    17    18 1   
    33    17    19 1   
    34    17    20 1   
    35    20    21 1   
    36    21    22 1   
    37    21    23 1   
    38    21    24 1   
    39    24    25 1   
    40    25    26 1   
    41    25    27 1   
    42    25    28 1   
@<TRIPOS>SUBSTRUCTURE
     1 U3H         1 TEMP              0 ****  ****    0 ROOT
