@<TRIPOS>MOLECULE
molecule
   44    48     1     0     0
SMALL
bcc


@<TRIPOS>ATOM
      1 N            0.0000     0.0000     0.0000 nb         1 U3M      -0.687000
      2 C            1.3980     0.0000     2.3870 ca         1 U3M      -0.074000
      3 O           -2.9880     0.0120     9.6540 o          1 U3M      -0.830300
      4 C1           2.0450     0.0000     1.1840 ca         1 U3M      -0.269300
      5 C10         -2.2440     0.0060     6.0200 ca         1 U3M      -0.075000
      6 C11         -2.9780     0.0080     7.2070 ca         1 U3M      -0.105600
      7 C12         -2.2790     0.0100     8.5090 c          1 U3M       0.882200
      8 C13         -4.2960     0.0070     4.7530 ca         1 U3M      -0.119000
      9 C14         -5.0290     0.0090     5.9360 cp         1 U3M      -0.089000
     10 C15         -4.3730     0.0090     7.1630 ca         1 U3M      -0.061000
     11 C16         -6.5120     0.0120     5.8890 cp         1 U3M       0.001000
     12 C17         -7.1690     0.0070     4.6470 ca         1 U3M      -0.117000
     13 C18         -8.5250     0.0100     4.5790 ca         1 U3M      -0.126000
     14 C19         -7.2340     0.0160     7.0670 ca         1 U3M      -0.165300
     15 C2           1.3120     0.0000     0.0000 ca         1 U3M       0.413200
     16 C20         -8.6370     0.0190     7.0200 ca         1 U3M       0.423600
     17 C21         -9.2870     0.0190     5.7610 ca         1 U3M      -0.164300
     18 C22        -10.6740     0.0230     8.1080 ca         1 U3M       0.419200
     19 C23        -11.3740     0.0300     6.9040 ca         1 U3M      -0.272300
     20 C24        -10.6940     0.0220     5.7190 ca         1 U3M      -0.082000
     21 C3          -0.6960     0.0000     1.1420 ca         1 U3M       0.404600
     22 C4          -0.0110     0.0000     2.3830 ca         1 U3M      -0.145300
     23 C5          -2.1020     0.0010     1.1290 ca         1 U3M      -0.177300
     24 C6          -2.7930     0.0020     2.2990 ca         1 U3M      -0.112000
     25 C7          -2.1230     0.0040     3.5330 cp         1 U3M      -0.001000
     26 C8          -0.7420     0.0020     3.5800 ca         1 U3M      -0.116000
     27 C9          -2.9030     0.0050     4.7940 cp         1 U3M      -0.089000
     28 N1          -9.3630     0.0210     8.1440 nb         1 U3M      -0.669000
     29 O1          -1.0650     0.0090     8.5460 o          1 U3M      -0.830300
     30 H            1.9530     0.0000     3.3180 ha         1 U3M       0.143000
     31 H1           3.1280     0.0000     1.1510 ha         1 U3M       0.128000
     32 H6          -1.1610     0.0040     6.0530 ha         1 U3M       0.151000
     33 H7          -4.8080     0.0070     3.7990 ha         1 U3M       0.113000
     34 H8          -4.9440     0.0110     8.0830 ha         1 U3M       0.165000
     35 H9          -6.5860     0.0010     3.7340 ha         1 U3M       0.132000
     36 H10         -9.0200     0.0060     3.6150 ha         1 U3M       0.122000
     37 H11         -6.7230     0.1390     8.0140 ha         1 U3M       0.174000
     38 H2           1.8390    -0.0000    -0.9460 h4         1 U3M       0.010100
     39 H12        -11.2260     0.0290     9.0400 h4         1 U3M       0.014100
     40 H13        -12.4570     0.0310     6.9080 ha         1 U3M       0.125000
     41 H14        -11.2230     0.0270     4.7740 ha         1 U3M       0.129000
     42 H3          -2.6350     0.0000     0.1860 ha         1 U3M       0.138000
     43 H4          -3.8760     0.0040     2.2790 ha         1 U3M       0.134000
     44 H5          -0.2280     0.0020     4.5340 ha         1 U3M       0.157000
@<TRIPOS>BOND
     1     1    15 ar
     2     1    21 ar
     3    15     4 ar
     4    21    23 ar
     5    21    22 ar
     6     4     2 ar
     7    23    24 ar
     8    29     7 1
     9     2    22 ar
    10    22    26 ar
    11    24    25 ar
    12     5     6 ar
    13     5    27 ar
    14     7     6 1
    15     7     3 1
    16    26    25 ar
    17    25    27 1
    18     6    10 ar
    19    27     8 ar
    20    10     9 ar
    21     8     9 ar
    22     9    11 1
    23    11    14 ar
    24    11    12 ar
    25    14    16 ar
    26    12    13 ar
    27    16    28 ar
    28    16    17 ar
    29    28    18 ar
    30    13    17 ar
    31    17    20 ar
    32    18    19 ar
    33    20    19 ar
    34     2    30 1
    35     4    31 1
    36     5    32 1
    37     8    33 1
    38    10    34 1
    39    12    35 1
    40    13    36 1
    41    14    37 1
    42    15    38 1
    43    18    39 1
    44    19    40 1
    45    20    41 1
    46    23    42 1
    47    24    43 1
    48    26    44 1
@<TRIPOS>SUBSTRUCTURE
     1 U3M         1 TEMP              0 ****  ****    0 ROOT
