@<TRIPOS>MOLECULE
U3P
   32    30     1     0     0
SMALL
bcc


@<TRIPOS>ATOM
      1 N1          0.5350   -0.7580   -0.7570 n         1 U3P     -0.177600
      2 C2          1.8970   -0.9490   -0.2930 c         1 U3P      0.718100
      3 N3          2.1510   -0.8330    1.0990 n         1 U3P     -0.606500
      4 C4          1.1580   -0.5950    2.0430 c         1 U3P      0.651100
      5 C5         -0.2590   -0.4320    1.5380 c3        1 U3P     -0.228300
      6 C6         -0.4680   -0.5650    0.0720 c1        1 U3P     -0.021100
      7 O2          2.8610   -1.2440   -1.0230 o         1 U3P     -0.575100
      8 O4          1.4670   -0.5360    3.2500 o         1 U3P     -0.628100
      9 O1P        -1.9850    4.4850   -4.4820 o         1 U3P     -0.894167
     10 O2P        -0.4640    3.1400   -6.0500 o         1 U3P     -0.894167
     11 O3P         0.4970    4.1530   -3.9270 o         1 U3P     -0.894167
     12 O5'         2.7070   -3.2140   -3.5470 oh        1 U3P     -0.858500
     13 C5'        -1.7920   -2.5820   -2.2080 c2        1 U3P     -0.332000
     14 C4'        -0.6000   -2.8360   -2.7510 c2        1 U3P      0.029100
     15 O4'         0.5050   -2.0110   -2.7510 os        1 U3P     -0.282200
     16 C3'         0.0870    1.5320   -3.5480 c2        1 U3P      0.289000
     17 O3'        -1.0060    2.1790   -3.7730 os        1 U3P     -0.341500
     18 C2'         0.1710    0.3520   -2.9000 c1        1 U3P     -0.272800
     19 O2'        -4.1200    5.8740   -4.1950 oh        1 U3P     -0.858500
     20 C1'         0.3500   -0.7210   -2.2070 c2        1 U3P      0.090600
     21 HN3         3.0980   -0.9280    1.3950 hn        1 U3P      0.322500
     22 H5         -0.9100   -1.1850    2.0570 hc        1 U3P      0.108200
     23 H6         -0.6210    0.5930    1.8290 hc        1 U3P      0.108200
     24 HO5'        2.7000   -2.6630   -2.7550 ho        1 U3P      0.424750
     25 H5'1        2.0320   -2.8030   -4.0970 ho        1 U3P      0.424750
     26 H5'2       -2.0140   -1.6320   -1.6990 ha        1 U3P      0.129500
     27 H4'        -2.6090   -3.3070   -2.2690 ha        1 U3P      0.129500
     28 H3'        -0.3220   -3.7610   -3.2840 h4        1 U3P      0.127000
     29 H2'         1.0370    1.9890   -3.9270 h4        1 U3P      0.162000
     30 HO2'       -3.8970    5.2270   -4.8760 ho        1 U3P      0.424750
     31 H1'        -3.3380    5.8280   -3.6310 ho        1 U3P      0.424750
     32 P          -0.7080    3.7440   -4.7110 p5        1 U3P      1.300900
@<TRIPOS>BOND
     1    1    2 1
     2    1    6 3
     3    1   20 1
     4    2    3 1
     5    2    7 2
     6    3    4 1
     7    3   21 1
     8    4    5 1
     9    4    8 2
    10    5    6 1
    11    5   22 1
    12    5   23 1
    13    9   32 1
    14   10   32 1
    15   11   32 1
    16   12   24 1
    17   12   25 1
    18   13   14 2
    19   13   26 1
    20   13   27 1
    21   14   15 1
    22   14   28 1
    23   15   20 1
    24   16   17 1
    25   16   18 2
    26   16   29 1
    27   17   32 1
    28   18   20 2
    29   19   30 1
    30   19   31 1
@<TRIPOS>SUBSTRUCTURE
     1 U3P         1 TEMP              0 ****  ****    0 ROOT
