@<TRIPOS>MOLECULE
U3S
   43    45     1     0     0
SMALL
bcc


@<TRIPOS>ATOM
      1 C4           0.0000     0.0000     0.0000 c          1 U3S       0.613700
      2 C5           1.4160     0.0000     0.0000 cc         1 U3S      -0.300200
      3 C6           2.0730     0.0000     1.1800 cd         1 U3S      -0.077400
      4 N1           1.3630    -0.0020     2.3500 n          1 U3S       0.024000
      5 N3          -0.6620    -0.0020     1.1740 ns         1 U3S      -0.128500
      6 CAV         -0.6230    -5.2790     7.2300 c3         1 U3S      -0.027400
      7 CAK         -1.2760    -4.1790     6.3870 c3         1 U3S      -0.022900
      8 CAM         -0.6950    -2.8220     6.7910 c3         1 U3S       0.150300
      9 CAJ          0.8940    -5.2320     7.0310 c3         1 U3S      -0.022900
     10 CAL          1.4110    -3.8440     7.4160 c3         1 U3S       0.150300
     11 NBA          0.7580    -2.8270     6.5820 n3         1 U3S      -0.525600
     12 C5'          1.3300    -1.4970     6.8280 c3         1 U3S       0.145800
     13 C4'          1.0120    -0.5790     5.6450 c3         1 U3S       0.160100
     14 O4'          1.6120    -1.0880     4.4430 os         1 U3S      -0.363600
     15 C3'          1.6550     0.8150     5.8590 c3         1 U3S       0.139100
     16 O3'          0.7940     1.6680     6.6150 oh         1 U3S      -0.567800
     17 C2'          1.7850     1.3080     4.3930 c3         1 U3S       0.109100
     18 O2'          2.8710     2.2260     4.2580 oh         1 U3S      -0.582800
     19 C1'          2.0750    -0.0030     3.6300 c3         1 U3S       0.224500
     20 O4          -0.6140     0.0050    -1.0520 o          1 U3S      -0.657500
     21 C2           0.0170    -0.0020     2.3360 c          1 U3S       0.596500
     22 O2          -0.5930    -0.0030     3.3880 o          1 U3S      -0.703500
     23 H5           1.9650     0.0010    -0.9340 ha         1 U3S       0.150000
     24 H6           3.1560    -0.0000     1.2000 h4         1 U3S       0.134000
     25 HN3         -1.6620    -0.0030     1.1820 hn         1 U3S       0.206500
     26 HAVA        -0.8550    -5.1180     8.2750 hc         1 U3S       0.011700
     27 HAK         -1.0730    -4.3600     5.3380 hc         1 U3S       0.019700
     28 HAKA        -2.3450    -4.1790     6.5590 hc         1 U3S       0.019700
     29 HAM         -1.1430    -2.0440     6.1850 h1         1 U3S       0.009700
     30 HAMA        -0.9070    -2.6380     7.8380 h1         1 U3S       0.009700
     31 HAJ          1.1280    -5.4280     5.9910 hc         1 U3S       0.019700
     32 HAJA         1.3630    -5.9780     7.6600 hc         1 U3S       0.019700
     33 HAL          2.4820    -3.8030     7.2590 h1         1 U3S       0.009700
     34 HALA         1.1850    -3.6520     8.4580 h1         1 U3S       0.009700
     35 H5'          0.9040    -1.0820     7.7330 h1         1 U3S       0.016200
     36 H5'A         2.4050    -1.5820     6.9400 h1         1 U3S       0.016200
     37 H4'         -0.0590    -0.4800     5.5160 h1         1 U3S       0.074700
     38 H3'          2.6300     0.7230     6.3230 h1         1 U3S       0.027700
     39 HO3'         1.3040     2.1580     7.2390 ho         1 U3S       0.392000
     40 H2'          0.8550     1.7490     4.0540 h1         1 U3S       0.054700
     41 HO2'         2.5330     3.0990     4.1480 ho         1 U3S       0.401000
     42 H1'          3.1410    -0.1000     3.4630 h2         1 U3S       0.054700
     43 HAV         -0.9990    -6.2450     6.9140 hc         1 U3S       0.011700
@<TRIPOS>BOND
     1     1     2 1   
     2     1     5 1   
     3     1    20 2   
     4     2     3 2   
     5     2    23 1   
     6     3     4 1   
     7     3    24 1   
     8     4    19 1   
     9     4    21 1   
    10     5    21 1   
    11     5    25 1   
    12     6     7 1   
    13     6     9 1   
    14     6    26 1   
    15     6    43 1   
    16     7     8 1   
    17     7    27 1   
    18     7    28 1   
    19     8    11 1   
    20     8    29 1   
    21     8    30 1   
    22     9    10 1   
    23     9    31 1   
    24     9    32 1   
    25    10    11 1   
    26    10    33 1   
    27    10    34 1   
    28    11    12 1   
    29    12    13 1   
    30    12    35 1   
    31    12    36 1   
    32    13    14 1   
    33    13    15 1   
    34    13    37 1   
    35    14    19 1   
    36    15    16 1   
    37    15    17 1   
    38    15    38 1   
    39    16    39 1   
    40    17    18 1   
    41    17    19 1   
    42    17    40 1   
    43    18    41 1   
    44    19    42 1   
    45    21    22 2   
@<TRIPOS>SUBSTRUCTURE
     1 U3S         1 TEMP              0 ****  ****    0 ROOT
