@<TRIPOS>MOLECULE
molecule
   43    45     1     0     0
SMALL
bcc


@<TRIPOS>ATOM
      1 C4           0.0000     0.0000     0.0000 c          1 U3S       0.703700
      2 C5           1.4160     0.0000     0.0000 cc         1 U3S      -0.327200
      3 C6           2.0730     0.0000     1.1800 cd         1 U3S       0.044600
      4 N1           1.3630    -0.0020     2.3500 n          1 U3S      -0.376000
      5 N3          -0.6620    -0.0020     1.1740 ns         1 U3S      -0.560500
      6 CAV         -0.6230    -5.2790     7.2300 c3         1 U3S      -0.083400
      7 CAK         -1.2760    -4.1790     6.3870 c3         1 U3S      -0.077400
      8 CAM         -0.6950    -2.8220     6.7910 c3         1 U3S       0.163300
      9 CAJ          0.8940    -5.2320     7.0310 c3         1 U3S      -0.077400
     10 CAL          1.4110    -3.8440     7.4160 c3         1 U3S       0.163300
     11 NBA          0.7580    -2.8270     6.5820 n3         1 U3S      -0.717600
     12 C5'          1.3300    -1.4970     6.8280 c3         1 U3S       0.164800
     13 C4'          1.0120    -0.5790     5.6450 c3         1 U3S       0.139100
     14 O4'          1.6120    -1.0880     4.4430 os         1 U3S      -0.370600
     15 C3'          1.6550     0.8150     5.8590 c3         1 U3S       0.096100
     16 O3'          0.7940     1.6680     6.6150 oh         1 U3S      -0.586800
     17 C2'          1.7850     1.3080     4.3930 c3         1 U3S       0.079100
     18 O2'          2.8710     2.2260     4.2580 oh         1 U3S      -0.604800
     19 C1'          2.0750    -0.0030     3.6300 c3         1 U3S       0.311500
     20 O4          -0.6140     0.0050    -1.0520 o          1 U3S      -0.620500
     21 C2           0.0170    -0.0020     2.3360 c          1 U3S       0.812500
     22 O2          -0.5930    -0.0030     3.3880 o          1 U3S      -0.654500
     23 H5           1.9650     0.0010    -0.9340 ha         1 U3S       0.179000
     24 H6           3.1560    -0.0000     1.2000 h4         1 U3S       0.166000
     25 HN3         -1.6620    -0.0030     1.1820 hn         1 U3S       0.362500
     26 HAVA        -0.8550    -5.1180     8.2750 hc         1 U3S       0.039200
     27 HAK         -1.0730    -4.3600     5.3380 hc         1 U3S       0.049450
     28 HAKA        -2.3450    -4.1790     6.5590 hc         1 U3S       0.049450
     29 HAM         -1.1430    -2.0440     6.1850 h1         1 U3S       0.033200
     30 HAMA        -0.9070    -2.6380     7.8380 h1         1 U3S       0.033200
     31 HAJ          1.1280    -5.4280     5.9910 hc         1 U3S       0.049450
     32 HAJA         1.3630    -5.9780     7.6600 hc         1 U3S       0.049450
     33 HAL          2.4820    -3.8030     7.2590 h1         1 U3S       0.033200
     34 HALA         1.1850    -3.6520     8.4580 h1         1 U3S       0.033200
     35 H5'          0.9040    -1.0820     7.7330 h1         1 U3S       0.042200
     36 H5'A         2.4050    -1.5820     6.9400 h1         1 U3S       0.042200
     37 H4'         -0.0590    -0.4800     5.5160 h1         1 U3S       0.102700
     38 H3'          2.6300     0.7230     6.3230 h1         1 U3S       0.060700
     39 HO3'         1.3040     2.1580     7.2390 ho         1 U3S       0.408000
     40 H2'          0.8550     1.7490     4.0540 h1         1 U3S       0.088700
     41 HO2'         2.5330     3.0990     4.1480 ho         1 U3S       0.417000
     42 H1'          3.1410    -0.1000     3.4630 h2         1 U3S       0.098700
     43 HAV         -0.9990    -6.2450     6.9140 hc         1 U3S       0.039200
@<TRIPOS>BOND
     1     1     2 1
     2     1     5 1
     3     1    20 2
     4     2     3 2
     5     3     4 1
     6     4    19 1
     7     4    21 1
     8     5    21 1
     9     6     7 1
    10     6     9 1
    11     7     8 1
    12     8    11 1
    13     9    10 1
    14    10    11 1
    15    11    12 1
    16    12    13 1
    17    13    14 1
    18    13    15 1
    19    14    19 1
    20    15    16 1
    21    15    17 1
    22    17    18 1
    23    17    19 1
    24    21    22 2
    25     2    23 1
    26     3    24 1
    27     5    25 1
    28     6    43 1
    29     6    26 1
    30     7    27 1
    31     7    28 1
    32     8    29 1
    33     8    30 1
    34     9    31 1
    35     9    32 1
    36    10    33 1
    37    10    34 1
    38    12    35 1
    39    12    36 1
    40    13    37 1
    41    15    38 1
    42    16    39 1
    43    17    40 1
    44    18    41 1
    45    19    42 1
@<TRIPOS>SUBSTRUCTURE
     1 U3S         1 TEMP              0 ****  ****    0 ROOT
