@<TRIPOS>MOLECULE
molecule
   58    59     1     0     0
SMALL
bcc


@<TRIPOS>ATOM
      1 OAX          0.0000     0.0000     0.0000 o          1 U46      -0.846800
      2 CAW          1.3420     0.0000     0.0000 c          1 U46       0.892600
      3 OAY          1.9470     0.0000     1.0470 o          1 U46      -0.846800
      4 CAR          2.0960     0.0010    -1.3040 c3         1 U46      -0.186400
      5 CAQ          3.6010     0.0000    -1.0250 c3         1 U46      -0.015400
      6 CAP          4.3660     0.0010    -2.3500 c3         1 U46      -0.138200
      7 CAO          5.8480     0.0010    -2.0740 c2         1 U46      -0.325200
      8 CAN          6.6170    -0.9020    -2.6290 c2         1 U46      -0.373200
      9 CAF          6.0600    -1.8190    -3.6870 c3         1 U46      -0.149200
     10 CAD          6.9270    -1.7310    -4.9460 c3         1 U46      -0.017700
     11 CAC          6.4710    -2.7920    -6.0010 c3         1 U46      -0.118700
     12 CAB          6.9700    -2.1100    -7.3270 c3         1 U46      -0.120400
     13 CAT          4.9410    -2.5230    -6.1550 c3         1 U46       0.119400
     14 OAS          4.8320    -1.2500    -6.8540 os         1 U46      -0.415600
     15 CAA          6.1860    -0.7720    -7.0830 c3         1 U46       0.132100
     16 CAE          6.7110    -0.3800    -5.6690 c3         1 U46      -0.056500
     17 CAG          8.0140     0.3700    -5.7800 c2         1 U46      -0.164200
     18 CAH          8.1260     1.5680    -5.2610 c2         1 U46      -0.178200
     19 CAI          9.4280     2.3180    -5.3730 c3         1 U46       0.183300
     20 OAU          9.9270     2.6040    -4.0640 oh         1 U46      -0.595800
     21 CAJ          9.1980     3.6300    -6.1280 c3         1 U46      -0.077400
     22 CAK         10.5390     4.3310    -6.3510 c3         1 U46      -0.082400
     23 CAL         10.3090     5.6430    -7.1060 c3         1 U46      -0.081400
     24 CAM         11.6500     6.3440    -7.3280 c3         1 U46      -0.084400
     25 CAV         11.4200     7.6550    -8.0830 c3         1 U46      -0.092100
     26 HAR1         1.8340    -0.8840    -1.8730 hc         1 U46       0.028700
     27 HAR2         1.8350     0.8850    -1.8720 hc         1 U46       0.028700
     28 HAQ1         3.8630    -0.8850    -0.4570 hc         1 U46       0.065700
     29 HAQ2         3.8630     0.8850    -0.4560 hc         1 U46       0.065700
     30 HAP1         4.1040    -0.8840    -2.9180 hc         1 U46       0.028200
     31 HAP2         4.1040     0.8850    -2.9170 hc         1 U46       0.028200
     32 HAO          5.4510     0.4930    -2.9540 ha         1 U46       0.330000
     33 HAN          6.0920    -1.8090    -2.3520 ha         1 U46       0.310000
     34 HAF1         5.0460    -1.5210    -3.9260 hc         1 U46       0.037700
     35 HAF2         6.0600    -2.8380    -3.3190 hc         1 U46       0.037700
     36 HAD          7.9730    -1.8670    -4.6990 hc         1 U46       0.076700
     37 HAC          6.7780    -3.8180    -5.8370 hc         1 U46       0.083700
     38 HAB1         8.0430    -1.9590    -7.3290 hc         1 U46       0.056200
     39 HAB2         6.6200    -2.6310    -8.2100 hc         1 U46       0.056200
     40 HAT1         4.4800    -3.3110    -6.7390 h1         1 U46       0.051700
     41 HAT2         4.4730    -2.4560    -5.1810 h1         1 U46       0.051700
     42 HAA          6.2980    -0.0180    -7.8530 h1         1 U46       0.097700
     43 HAE          5.9750     0.2160    -5.1440 hc         1 U46       0.068700
     44 HAG          8.8570    -0.0800    -6.2890 ha         1 U46       0.115000
     45 HAH          7.2820     2.0190    -4.7520 ha         1 U46       0.143000
     46 HAI         10.1480     1.7140    -5.9100 h1         1 U46       0.024700
     47 HAU         10.5150     1.9180    -3.7950 ho         1 U46       0.404000
     48 HAJ1         8.5470     4.2720    -5.5470 hc         1 U46       0.053200
     49 HAJ2         8.7370     3.4190    -7.0860 hc         1 U46       0.053200
     50 HAK1        11.0000     4.5420    -5.3930 hc         1 U46       0.044700
     51 HAK2        11.1900     3.6890    -6.9310 hc         1 U46       0.044700
     52 HAL1         9.8480     5.4320    -8.0630 hc         1 U46       0.041200
     53 HAL2         9.6580     6.2850    -6.5250 hc         1 U46       0.041200
     54 HAM1        12.3020     5.7030    -7.9090 hc         1 U46       0.038700
     55 HAM2        12.1110     6.5550    -6.3710 hc         1 U46       0.038700
     56 HAV1        10.7670     8.2960    -7.5020 hc         1 U46       0.030700
     57 HAV2        12.3690     8.1530    -8.2400 hc         1 U46       0.030700
     58 HAV3        10.9590     7.4450    -9.0410 hc         1 U46       0.030700
@<TRIPOS>BOND
     1     1     2 1
     2     2     3 1
     3     2     4 1
     4     4     5 1
     5     4    26 1
     6     4    27 1
     7     5     6 1
     8     5    28 1
     9     5    29 1
    10     6     7 1
    11     6    30 1
    12     6    31 1
    13     7     8 2
    14     7    32 1
    15     8     9 1
    16     8    33 1
    17     9    10 1
    18     9    34 1
    19     9    35 1
    20    10    11 1
    21    10    16 1
    22    10    36 1
    23    11    12 1
    24    11    13 1
    25    11    37 1
    26    12    15 1
    27    12    38 1
    28    12    39 1
    29    13    14 1
    30    13    40 1
    31    13    41 1
    32    14    15 1
    33    15    16 1
    34    15    42 1
    35    16    17 1
    36    16    43 1
    37    17    18 2
    38    17    44 1
    39    18    19 1
    40    18    45 1
    41    19    20 1
    42    19    21 1
    43    19    46 1
    44    20    47 1
    45    21    22 1
    46    21    48 1
    47    21    49 1
    48    22    23 1
    49    22    50 1
    50    22    51 1
    51    23    24 1
    52    23    52 1
    53    23    53 1
    54    24    25 1
    55    24    54 1
    56    24    55 1
    57    25    56 1
    58    25    57 1
    59    25    58 1
@<TRIPOS>SUBSTRUCTURE
     1 U46         1 TEMP              0 ****  ****    0 ROOT
