@<TRIPOS>MOLECULE
U46
   58    59     1     0     0
SMALL
bcc


@<TRIPOS>ATOM
      1 OAX         2.9540   -2.7530    2.6990 o         1 U46     -0.851300
      2 CAW         2.7380   -1.7610    1.9460 c         1 U46      0.908600
      3 OAY         2.2960   -0.6480    2.3530 o         1 U46     -0.851300
      4 CAR         3.0120   -1.9360    0.4400 c3        1 U46     -0.196400
      5 CAQ         3.7110   -0.7280   -0.1330 c3        1 U46     -0.064400
      6 CAP         3.8380   -0.8190   -1.6410 c3        1 U46     -0.061200
      7 CAO         4.5510    0.3440   -2.2190 c2        1 U46     -0.124200
      8 CAN         4.9650    0.4510   -3.4860 c2        1 U46     -0.227200
      9 CAF         4.7640   -0.5710   -4.5420 c3        1 U46     -0.033200
     10 CAD         6.0380   -0.8210   -5.3220 c3        1 U46     -0.053700
     11 CAC         6.0070   -2.1100   -6.1800 c3        1 U46     -0.101700
     12 CAB         7.2210   -1.8550   -7.1160 c3        1 U46     -0.117400
     13 CAT         4.8620   -1.9800   -7.2090 c3        1 U46      0.118400
     14 OAS         5.3140   -0.9680   -8.1450 os        1 U46     -0.428600
     15 CAA         6.6140   -0.5390   -7.6730 c3        1 U46      0.131100
     16 CAE         6.3590    0.2830   -6.3750 c3        1 U46     -0.069500
     17 CAG         7.5410    1.0900   -5.9970 c2        1 U46     -0.137200
     18 CAH         7.4880    2.3990   -5.7370 c2        1 U46     -0.216200
     19 CAI         8.6890    3.2070   -5.3570 c3        1 U46      0.175300
     20 OAU         8.3290    4.2660   -4.4730 oh        1 U46     -0.603800
     21 CAJ         9.3130    3.8610   -6.5900 c3        1 U46     -0.070400
     22 CAK        10.6600    4.4670   -6.2670 c3        1 U46     -0.079400
     23 CAL        11.2530    5.1610   -7.4740 c3        1 U46     -0.078400
     24 CAM        12.6080    5.7580   -7.1550 c3        1 U46     -0.080400
     25 CAV        13.2020    6.4540   -8.3520 c3        1 U46     -0.092100
     26 HAR1        2.0280   -2.0890   -0.0700 hc        1 U46      0.019700
     27 HAR2        3.6280   -2.8560    0.2810 hc        1 U46      0.019700
     28 HAQ1        4.7300   -0.6340    0.3240 hc        1 U46      0.046700
     29 HAQ2        3.1330    0.1910    0.1540 hc        1 U46      0.046700
     30 HAP1        4.3760   -1.7690   -1.9100 hc        1 U46      0.039700
     31 HAP2        2.8130   -0.8860   -2.0980 hc        1 U46      0.039700
     32 HAO         4.7350    1.1760   -1.5150 ha        1 U46      0.123000
     33 HAN         5.4940    1.3570   -3.8270 ha        1 U46      0.106000
     34 HAF1        4.4200   -1.5420   -4.0930 hc        1 U46      0.048700
     35 HAF2        3.9490   -0.2160   -5.2300 hc        1 U46      0.048700
     36 HAD         6.8900   -0.9050   -4.5950 hc        1 U46      0.061700
     37 HAC         6.0060   -3.0500   -5.6000 hc        1 U46      0.083700
     38 HAB1        8.1750   -1.7040   -6.5700 hc        1 U46      0.057700
     39 HAB2        7.3420   -2.6370   -7.8960 hc        1 U46      0.057700
     40 HAT1        4.7090   -2.9220   -7.7900 h1        1 U46      0.050200
     41 HAT2        3.9000   -1.6300   -6.7670 h1        1 U46      0.050200
     42 HAA         7.1240   -0.0180   -8.5020 h1        1 U46      0.089700
     43 HAE         5.4600    0.9360   -6.5290 hc        1 U46      0.077700
     44 HAG         8.4910    0.5320   -5.9310 ha        1 U46      0.118000
     45 HAH         6.5450    2.9670   -5.7880 ha        1 U46      0.138000
     46 HAI         9.4540    2.5550   -4.8450 h1        1 U46      0.036700
     47 HAU         7.8490    3.8640   -3.7390 ho        1 U46      0.407000
     48 HAJ1        8.6200    4.6570   -6.9700 hc        1 U46      0.049700
     49 HAJ2        9.4200    3.0830   -7.3890 hc        1 U46      0.049700
     50 HAK1       10.5390    5.2000   -5.4250 hc        1 U46      0.046700
     51 HAK2       11.3600    3.6660   -5.9120 hc        1 U46      0.046700
     52 HAL1       11.3550    4.4300   -8.3180 hc        1 U46      0.037700
     53 HAL2       10.5590    5.9720   -7.8200 hc        1 U46      0.037700
     54 HAM1       13.3010    4.9460   -6.8080 hc        1 U46      0.038700
     55 HAM2       12.5040    6.4870   -6.3080 hc        1 U46      0.038700
     56 HAV1       13.3350    5.7380   -9.1990 hc        1 U46      0.030033
     57 HAV2       14.2000    6.8860   -8.0950 hc        1 U46      0.030033
     58 HAV3       12.5370    7.2820   -8.6960 hc        1 U46      0.030033
@<TRIPOS>BOND
     1    1    2 1   
     2    2    3 1   
     3    2    4 1   
     4    4    5 1   
     5    4   26 1   
     6    4   27 1   
     7    5    6 1   
     8    5   28 1   
     9    5   29 1   
    10    6    7 1   
    11    6   30 1   
    12    6   31 1   
    13    7    8 2   
    14    7   32 1   
    15    8    9 1   
    16    8   33 1   
    17    9   10 1   
    18    9   34 1   
    19    9   35 1   
    20   10   11 1   
    21   10   16 1   
    22   10   36 1   
    23   11   12 1   
    24   11   13 1   
    25   11   37 1   
    26   12   15 1   
    27   12   38 1   
    28   12   39 1   
    29   13   14 1   
    30   13   40 1   
    31   13   41 1   
    32   14   15 1   
    33   15   16 1   
    34   15   42 1   
    35   16   17 1   
    36   16   43 1   
    37   17   18 2   
    38   17   44 1   
    39   18   19 1   
    40   18   45 1   
    41   19   20 1   
    42   19   21 1   
    43   19   46 1   
    44   20   47 1   
    45   21   22 1   
    46   21   48 1   
    47   21   49 1   
    48   22   23 1   
    49   22   50 1   
    50   22   51 1   
    51   23   24 1   
    52   23   52 1   
    53   23   53 1   
    54   24   25 1   
    55   24   54 1   
    56   24   55 1   
    57   25   56 1   
    58   25   57 1   
    59   25   58 1   
@<TRIPOS>SUBSTRUCTURE
     1 U46         1 TEMP              0 ****  ****    0 ROOT
