@<TRIPOS>MOLECULE
U49
   55    60     1     0     0
SMALL
bcc


@<TRIPOS>ATOM
      1 C1         -0.1730   -0.0450    0.1610 ca        1 U49      0.010000
      2 C2          1.2440    0.1860    0.0580 ca        1 U49      0.018600
      3 C3         -0.8340    0.3410    1.3570 ca        1 U49     -0.048000
      4 C4         -0.9400   -0.6290   -0.8820 ca        1 U49     -0.182000
      5 N5          1.9630   -0.2760   -1.0770 n         1 U49     -0.355000
      6 C6          1.9180    0.8300    1.0910 ca        1 U49     -0.107000
      7 C7         -2.2310    0.1000    1.4990 ca        1 U49     -0.082000
      8 C8         -0.1070    0.9730    2.4000 ca        1 U49     -0.079000
      9 C9         -2.2940   -0.8220   -0.7170 ca        1 U49      0.128100
     10 C10         3.1660   -1.0800   -0.9070 c3        1 U49      0.082000
     11 C11         1.8120    0.1860   -2.3670 c         1 U49      0.684500
     12 C12         1.2360    1.2190    2.2620 ca        1 U49     -0.129000
     13 C13        -2.9610   -0.4720    0.4910 ca        1 U49     -0.118000
     14 O14        -3.1090   -1.4310   -1.6720 os        1 U49     -0.245200
     15 C15         3.8330   -1.2150   -2.2910 c3        1 U49     -0.120400
     16 C17         2.9280   -0.4430   -3.2680 c3        1 U49      0.011500
     17 C18        -2.7730   -1.1840   -3.0020 ca        1 U49      0.135100
     18 C20        -3.4340   -0.1640   -3.7130 ca        1 U49      0.023000
     19 C21        -1.8770   -2.0440   -3.6480 ca        1 U49     -0.149000
     20 C22         1.4010   -0.5560   -5.2580 c3        1 U49      0.214100
     21 C23        -3.1890   -0.0300   -5.0870 ca        1 U49     -0.075000
     22 C24        -4.3430    0.7140   -3.0650 cg        1 U49      0.215800
     23 C25        -1.6370   -1.8890   -5.0170 ca        1 U49     -0.121300
     24 C26         1.1600   -1.3270   -6.4820 cc        1 U49     -0.360900
     25 C27        -2.2990   -0.8870   -5.7330 ca        1 U49     -0.115000
     26 N28        -5.0880    1.4320   -2.5340 n1        1 U49     -0.303800
     27 C29        -0.7290   -2.8730   -5.6950 c3        1 U49      0.076600
     28 N30         0.1890   -2.3360   -6.6620 na        1 U49     -0.190900
     29 C31         1.7860   -1.1610   -7.7440 cd        1 U49      0.388200
     30 C32         0.2680   -2.7150   -8.0050 cc        1 U49      0.457400
     31 N33         1.2290   -2.0230   -8.6690 nd        1 U49     -0.645000
     32 O39         0.9500    0.9340   -2.8390 o         1 U49     -0.575500
     33 N54         2.3500   -1.2980   -4.3430 n4        1 U49     -0.757000
     34 H41        -0.4670   -0.8940   -1.8380 ha        1 U49      0.124000
     35 H61         2.9970    1.0450    1.0240 ha        1 U49      0.140000
     36 H71        -2.7210    0.3950    2.4420 ha        1 U49      0.156000
     37 H81        -0.6430    1.2660    3.3180 ha        1 U49      0.154000
     38 H101        2.8780   -2.0870   -0.4960 h1        1 U49      0.083700
     39 H102        3.8710   -0.5920   -0.1780 h1        1 U49      0.083700
     40 H121        1.8020    1.7230    3.0610 ha        1 U49      0.155000
     41 H131       -4.0420   -0.6620    0.5820 ha        1 U49      0.171000
     42 H151        4.8510   -0.7490   -2.2780 hc        1 U49      0.089200
     43 H152        3.9590   -2.2940   -2.5560 hc        1 U49      0.089200
     44 H171        3.4870    0.4030   -3.7650 hx        1 U49      0.135700
     45 H211       -1.4020   -2.8530   -3.0710 ha        1 U49      0.151000
     46 H221        1.8510   -2.0870   -3.9190 hn        1 U49      0.445800
     47 H222        0.4510   -0.3570   -4.6740 hx        1 U49      0.131700
     48 H231       -3.7100    0.7550   -5.6600 ha        1 U49      0.169000
     49 H271       -2.1310   -0.7700   -6.8160 ha        1 U49      0.156000
     50 H291       -1.3760   -3.6370   -6.2250 h1        1 U49      0.076200
     51 H292       -0.1250   -3.4240   -4.9120 h1        1 U49      0.076200
     52 H311        2.5810   -0.4640   -8.0170 h4        1 U49      0.060100
     53 H321       -0.3750   -3.4890   -8.4470 h5        1 U49      0.089100
     54 H541        3.1210   -1.6820   -4.9040 hn        1 U49      0.445800
     55 H542        1.8760    0.4360   -5.5120 hx        1 U49      0.131700
@<TRIPOS>BOND
     1    1    2 ar
     2    1    3 ar
     3    1    4 ar
     4    2    5 1
     5    2    6 ar
     6    3    7 ar
     7    3    8 ar
     8    4    9 ar
     9    4   34 1
    10    5   10 1
    11    5   11 1
    12    6   12 ar
    13    6   35 1
    14    7   13 ar
    15    7   36 1
    16    8   12 ar
    17    8   37 1
    18    9   13 ar
    19    9   14 1
    20   10   15 1
    21   10   38 1
    22   10   39 1
    23   11   16 1
    24   11   32 2
    25   12   40 1
    26   13   41 1
    27   14   17 1
    28   15   16 1
    29   15   42 1
    30   15   43 1
    31   16   33 1
    32   16   44 1
    33   17   18 ar
    34   17   19 ar
    35   18   21 ar
    36   18   22 1
    37   19   23 ar
    38   19   45 1
    39   20   24 1
    40   20   33 1
    41   20   47 1
    42   20   55 1
    43   21   25 ar
    44   21   48 1
    45   22   26 3
    46   23   25 ar
    47   23   27 1
    48   24   28 1
    49   24   29 2
    50   25   49 1
    51   27   28 1
    52   27   50 1
    53   27   51 1
    54   28   30 1
    55   29   31 1
    56   29   52 1
    57   30   31 2
    58   30   53 1
    59   33   46 1
    60   33   54 1
@<TRIPOS>SUBSTRUCTURE
     1 U49         1 TEMP              0 ****  ****    0 ROOT
