@<TRIPOS>MOLECULE
molecule
   28    29     1     0     0
SMALL
bcc


@<TRIPOS>ATOM
      1 C            0.0000     0.0000     0.0000 c          1 U4J       0.883200
      2 O            1.3470     0.0000     0.0000 o          1 U4J      -0.836800
      3 C1          -0.7390     0.0000     1.2800 ca         1 U4J      -0.104600
      4 C10         -5.0110    -0.0040     1.3010 ca         1 U4J      -0.095000
      5 C11         -2.1130     0.0010     3.6930 ca         1 U4J      -0.141000
      6 C12         -0.7320     0.0060     3.6860 ca         1 U4J      -0.165000
      7 C13         -0.0420     0.0060     2.4900 ca         1 U4J      -0.086000
      8 C2          -2.1340     0.0010     1.2820 ca         1 U4J      -0.090000
      9 C3          -2.8210     0.0010     2.4910 cp         1 U4J      -0.080000
     10 C4          -4.3050    -0.0030     2.5020 cp         1 U4J      -0.035000
     11 C5          -4.9940    -0.0080     3.7140 ca         1 U4J      -0.095000
     12 C6          -6.3730    -0.0120     3.7210 ca         1 U4J      -0.190000
     13 C7          -7.0740    -0.0120     2.5230 ca         1 U4J       0.112100
     14 C8          -9.0920    -0.0180     1.2640 c3         1 U4J       0.131700
     15 C9          -6.3900    -0.0090     1.3150 ca         1 U4J      -0.190000
     16 O1          -8.4330    -0.0180     2.5330 os         1 U4J      -0.340900
     17 O2          -0.6080     0.0050    -1.0520 o          1 U4J      -0.836800
     18 H7          -4.4780    -0.0000     0.3580 ha         1 U4J       0.144000
     19 H8          -2.6480     0.0010     4.6350 ha         1 U4J       0.104000
     20 H9          -0.1880     0.0090     4.6220 ha         1 U4J       0.106000
     21 H10          1.0410     0.0100     2.4910 ha         1 U4J       0.154000
     22 H           -2.6790     0.0010     0.3460 ha         1 U4J       0.147000
     23 H1          -4.4460    -0.0080     4.6490 ha         1 U4J       0.144000
     24 H2          -6.9090    -0.0160     4.6620 ha         1 U4J       0.127500
     25 H3          -8.8080     0.8690     0.7100 h1         1 U4J       0.035700
     26 H5          -8.8020    -0.9000     0.7070 h1         1 U4J       0.035700
     27 H4         -10.1640    -0.0220     1.4150 h1         1 U4J       0.035700
     28 H6          -6.9400    -0.0090     0.3820 ha         1 U4J       0.127500
@<TRIPOS>BOND
     1     6     7 ar
     2     6     5 ar
     3     7     3 ar
     4    17     1 1
     5     5     9 ar
     6     3     1 1
     7     3     8 ar
     8     1     2 1
     9     9     8 ar
    10     9    10 1
    11    10    11 ar
    12    10     4 ar
    13    11    12 ar
    14     4    15 ar
    15    12    13 ar
    16    15    13 ar
    17    13    16 1
    18    16    14 1
    19     4    18 1
    20     5    19 1
    21     6    20 1
    22     7    21 1
    23     8    22 1
    24    11    23 1
    25    12    24 1
    26    14    25 1
    27    14    26 1
    28    14    27 1
    29    15    28 1
@<TRIPOS>SUBSTRUCTURE
     1 U4J         1 TEMP              0 ****  ****    0 ROOT
