@<TRIPOS>MOLECULE
U4S
   40    42     1     0     0
SMALL
bcc


@<TRIPOS>ATOM
      1 C4           0.0000     0.0000     0.0000 c          1 U4S       0.614700
      2 C5           1.4160     0.0000     0.0000 cc         1 U4S      -0.300200
      3 C6           2.0730     0.0000     1.1800 cd         1 U4S      -0.077400
      4 N1           1.3640     0.0010     2.3500 n          1 U4S       0.024000
      5 N3          -0.6610     0.0020     1.1760 ns         1 U4S      -0.130500
      6 CAJ          1.2600    -3.7990     7.5860 c3         1 U4S       0.145300
      7 C5'          1.3340    -1.4850     6.8300 c3         1 U4S       0.147800
      8 C4'          1.0150    -0.5680     5.6470 c3         1 U4S       0.160100
      9 O4'          1.6140    -1.0800     4.4450 os         1 U4S      -0.362600
     10 C3'          1.6600     0.8250     5.8570 c3         1 U4S       0.140100
     11 O3'          0.7990     1.6800     6.6130 oh         1 U4S      -0.567800
     12 C2'          1.7880     1.3150     4.3900 c3         1 U4S       0.110100
     13 O2'          2.8770     2.2310     4.2530 oh         1 U4S      -0.582800
     14 C1'          2.0770     0.0020     3.6300 c3         1 U4S       0.223500
     15 O4          -0.6150     0.0050    -1.0500 o          1 U4S      -0.656500
     16 C2           0.0190     0.0030     2.3370 c          1 U4S       0.596500
     17 O2          -0.5910     0.0040     3.3890 o          1 U4S      -0.704500
     18 CAI         -0.7020    -2.8190     6.7570 c3         1 U4S       0.145300
     19 CAG         -1.0660    -4.3000     7.0020 c3         1 U4S      -0.025900
     20 CAH          0.2250    -4.9440     7.5470 c3         1 U4S      -0.025900
     21 NAT          0.7730    -2.8190     6.5800 n3         1 U4S      -0.527600
     22 H5           1.9650    -0.0010    -0.9340 ha         1 U4S       0.150000
     23 H6           3.1560    -0.0000     1.1990 h4         1 U4S       0.134000
     24 HN3         -1.6620     0.0020     1.1850 hn         1 U4S       0.206500
     25 HAJA         1.2840    -3.3470     8.5700 h1         1 U4S       0.014450
     26 H5'          2.4080    -1.5610     6.9490 h1         1 U4S       0.016200
     27 H5'A         0.8990    -1.0740     7.7330 h1         1 U4S       0.016200
     28 H4'         -0.0560    -0.4690     5.5180 h1         1 U4S       0.073700
     29 H3'          2.6350     0.7330     6.3210 h1         1 U4S       0.027700
     30 HO3'         1.3100     2.1660     7.2400 ho         1 U4S       0.392000
     31 H2'          0.8590     1.7560     4.0510 h1         1 U4S       0.054700
     32 HO2'         2.5400     3.0980     4.0970 ho         1 U4S       0.401000
     33 H1'          3.1430    -0.0970     3.4630 h2         1 U4S       0.054700
     34 HAI         -1.1880    -2.4560     5.8600 h1         1 U4S       0.014450
     35 HAIA        -0.9780    -2.2170     7.6140 h1         1 U4S       0.014450
     36 HAG         -1.8600    -4.3740     7.7350 hc         1 U4S       0.017200
     37 HAGA        -1.3570    -4.7730     6.0720 hc         1 U4S       0.017200
     38 HAH          0.5610    -5.7300     6.8820 hc         1 U4S       0.017200
     39 HAHA         0.0580    -5.3320     8.5450 hc         1 U4S       0.017200
     40 HAJ          2.2400    -4.1670     7.3080 h1         1 U4S       0.014450
@<TRIPOS>BOND
     1     1     2 1   
     2     1     5 1   
     3     1    15 2   
     4     2     3 2   
     5     2    22 1   
     6     3     4 1   
     7     3    23 1   
     8     4    14 1   
     9     4    16 1   
    10     5    16 1   
    11     5    24 1   
    12     6    20 1   
    13     6    21 1   
    14     6    25 1   
    15     6    40 1   
    16     7     8 1   
    17     7    21 1   
    18     7    26 1   
    19     7    27 1   
    20     8     9 1   
    21     8    10 1   
    22     8    28 1   
    23     9    14 1   
    24    10    11 1   
    25    10    12 1   
    26    10    29 1   
    27    11    30 1   
    28    12    13 1   
    29    12    14 1   
    30    12    31 1   
    31    13    32 1   
    32    14    33 1   
    33    16    17 2   
    34    18    19 1   
    35    18    21 1   
    36    18    34 1   
    37    18    35 1   
    38    19    20 1   
    39    19    36 1   
    40    19    37 1   
    41    20    38 1   
    42    20    39 1   
@<TRIPOS>SUBSTRUCTURE
     1 U4S         1 TEMP              0 ****  ****    0 ROOT
