@<TRIPOS>MOLECULE
molecule
   40    42     1     0     0
SMALL
bcc


@<TRIPOS>ATOM
      1 C4           0.0000     0.0000     0.0000 c          1 U4S       0.704700
      2 C5           1.4160     0.0000     0.0000 cc         1 U4S      -0.328200
      3 C6           2.0730     0.0000     1.1800 cd         1 U4S       0.044600
      4 N1           1.3640     0.0010     2.3500 n          1 U4S      -0.376000
      5 N3          -0.6610     0.0020     1.1760 ns         1 U4S      -0.561500
      6 CAJ          1.2600    -3.7990     7.5860 c3         1 U4S       0.138800
      7 C5'          1.3340    -1.4850     6.8300 c3         1 U4S       0.152800
      8 C4'          1.0150    -0.5680     5.6470 c3         1 U4S       0.140100
      9 O4'          1.6140    -1.0800     4.4450 os         1 U4S      -0.370600
     10 C3'          1.6600     0.8250     5.8570 c3         1 U4S       0.098100
     11 O3'          0.7990     1.6800     6.6130 oh         1 U4S      -0.586800
     12 C2'          1.7880     1.3150     4.3900 c3         1 U4S       0.079100
     13 O2'          2.8770     2.2310     4.2530 oh         1 U4S      -0.603800
     14 C1'          2.0770     0.0020     3.6300 c3         1 U4S       0.309500
     15 O4          -0.6150     0.0050    -1.0500 o          1 U4S      -0.619500
     16 C2           0.0190     0.0030     2.3370 c          1 U4S       0.812500
     17 O2          -0.5910     0.0040     3.3890 o          1 U4S      -0.655500
     18 CAI         -0.7020    -2.8190     6.7570 c3         1 U4S       0.138800
     19 CAG         -1.0660    -4.3000     7.0020 c3         1 U4S      -0.084400
     20 CAH          0.2250    -4.9440     7.5470 c3         1 U4S      -0.084400
     21 NAT          0.7730    -2.8190     6.5800 n3         1 U4S      -0.683600
     22 H5           1.9650    -0.0010    -0.9340 ha         1 U4S       0.179000
     23 H6           3.1560    -0.0000     1.1990 h4         1 U4S       0.166000
     24 HN3         -1.6620     0.0020     1.1850 hn         1 U4S       0.362500
     25 HAJA         1.2840    -3.3470     8.5700 h1         1 U4S       0.042450
     26 H5'          2.4080    -1.5610     6.9490 h1         1 U4S       0.043200
     27 H5'A         0.8990    -1.0740     7.7330 h1         1 U4S       0.043200
     28 H4'         -0.0560    -0.4690     5.5180 h1         1 U4S       0.102700
     29 H3'          2.6350     0.7330     6.3210 h1         1 U4S       0.061700
     30 HO3'         1.3100     2.1660     7.2400 ho         1 U4S       0.408000
     31 H2'          0.8590     1.7560     4.0510 h1         1 U4S       0.089700
     32 HO2'         2.5400     3.0980     4.0970 ho         1 U4S       0.416000
     33 H1'          3.1430    -0.0970     3.4630 h2         1 U4S       0.098700
     34 HAI         -1.1880    -2.4560     5.8600 h1         1 U4S       0.042450
     35 HAIA        -0.9780    -2.2170     7.6140 h1         1 U4S       0.042450
     36 HAG         -1.8600    -4.3740     7.7350 hc         1 U4S       0.047950
     37 HAGA        -1.3570    -4.7730     6.0720 hc         1 U4S       0.047950
     38 HAH          0.5610    -5.7300     6.8820 hc         1 U4S       0.047950
     39 HAHA         0.0580    -5.3320     8.5450 hc         1 U4S       0.047950
     40 HAJ          2.2400    -4.1670     7.3080 h1         1 U4S       0.042450
@<TRIPOS>BOND
     1     1     2 1
     2     1     5 1
     3     1    15 2
     4     2     3 2
     5     3     4 1
     6     4    14 1
     7     4    16 1
     8     5    16 1
     9     6    20 1
    10     6    21 1
    11     7     8 1
    12     7    21 1
    13     8     9 1
    14     8    10 1
    15     9    14 1
    16    10    11 1
    17    10    12 1
    18    12    13 1
    19    12    14 1
    20    16    17 2
    21    18    19 1
    22    18    21 1
    23    19    20 1
    24     2    22 1
    25     3    23 1
    26     5    24 1
    27     6    40 1
    28     6    25 1
    29     7    26 1
    30     7    27 1
    31     8    28 1
    32    10    29 1
    33    11    30 1
    34    12    31 1
    35    13    32 1
    36    14    33 1
    37    18    34 1
    38    18    35 1
    39    19    36 1
    40    19    37 1
    41    20    38 1
    42    20    39 1
@<TRIPOS>SUBSTRUCTURE
     1 U4S         1 TEMP              0 ****  ****    0 ROOT
