@<TRIPOS>MOLECULE
U4W
   78    83     1     0     0
SMALL
bcc


@<TRIPOS>ATOM
      1 F40          0.0000     0.0000     0.0000 f          1 U4W      -0.123900
      2 C35          1.3510     0.0000     0.0000 ca         1 U4W       0.136900
      3 C36          2.0420     0.0000     1.1990 ca         1 U4W      -0.173000
      4 C37          3.4280     0.0000     1.1980 ca         1 U4W       0.136900
      5 F39          4.1040    -0.0010     2.3670 f          1 U4W      -0.123900
      6 C38          4.1180     0.0020    -0.0030 ca         1 U4W      -0.145000
      7 C34          2.0440    -0.0050    -1.1980 ca         1 U4W      -0.145000
      8 C33          3.4260     0.0020    -1.1990 ca         1 U4W      -0.030300
      9 C32          4.1780     0.0030    -2.5040 c3         1 U4W       0.095200
     10 C26          4.4300    -1.4170    -2.9410 ca         1 U4W      -0.141300
     11 C27          3.5000    -2.0660    -3.7420 ca         1 U4W      -0.048000
     12 C28          3.7050    -3.3530    -4.1500 ca         1 U4W      -0.117000
     13 C29          4.8590    -4.0290    -3.7600 ca         1 U4W      -0.171200
     14 N30          5.3460    -5.2890    -3.9950 na         1 U4W       0.419900
     15 N31          6.5760    -5.4340    -3.3460 nc         1 U4W      -0.615100
     16 C25          5.5730    -2.0530    -2.5470 ca         1 U4W      -0.012000
     17 C24          5.8040    -3.3720    -2.9480 ca         1 U4W      -0.269900
     18 C23          6.8840    -4.3310    -2.7170 cd         1 U4W       0.313500
     19 N22          8.0390    -4.1080    -1.9600 ns         1 U4W      -0.008400
     20 C21          8.9590    -5.0840    -1.8300 c          1 U4W       0.604700
     21 O41          8.7850    -6.1600    -2.3710 o          1 U4W      -0.627100
     22 C9          10.1730    -4.8480    -1.0340 ca         1 U4W      -0.301600
     23 C8          11.0770    -5.8990    -0.7970 ca         1 U4W       0.169600
     24 N7          10.8290    -7.1640    -1.3150 nu         1 U4W      -0.430600
     25 C6          11.7060    -8.2840    -0.9640 c3         1 U4W       0.126500
     26 C1          10.9350    -9.5980    -1.1050 c3         1 U4W      -0.039400
     27 C2          11.8510   -10.7690    -0.7390 c3         1 U4W      -0.039400
     28 C3          13.0600   -10.7820    -1.6760 c3         1 U4W       0.189100
     29 O42         13.9150   -11.8750    -1.3340 oh         1 U4W      -0.586800
     30 C4          13.8310    -9.4680    -1.5360 c3         1 U4W      -0.039400
     31 C5          12.9150    -8.2980    -1.9020 c3         1 U4W      -0.039400
     32 C13         12.2180    -5.6650    -0.0460 ca         1 U4W      -0.259000
     33 C12         12.4610    -4.3970     0.4670 ca         1 U4W       0.106600
     34 C11         11.5600    -3.3600     0.2300 ca         1 U4W      -0.249000
     35 C10         10.4370    -3.5770    -0.5140 ca         1 U4W       0.005000
     36 N14         13.6050    -4.1630     1.2210 nh         1 U4W      -0.362000
     37 C15         13.6650    -2.7620     1.6650 c3         1 U4W       0.135800
     38 C16         14.9760    -2.5260     2.4210 c3         1 U4W       0.151800
     39 N17         15.0470    -3.4420     3.5670 n3         1 U4W      -0.549600
     40 C20         16.2570    -3.1940     4.3640 c3         1 U4W       0.189100
     41 C18         14.9870    -4.8420     3.1240 c3         1 U4W       0.151800
     42 C19         13.6780    -5.0790     2.3680 c3         1 U4W       0.135800
     43 H36          1.5010     0.0410     2.1360 ha         1 U4W       0.135000
     44 H34          1.5020    -0.0040    -2.1370 ha         1 U4W       0.124000
     45 H38          5.2020     0.0050    -0.0040 ha         1 U4W       0.124000
     46 H321         5.1250     0.5140    -2.3750 hc         1 U4W       0.024700
     47 H322         3.5920     0.5140    -3.2590 hc         1 U4W       0.024700
     48 H27          2.6020    -1.5440    -4.0500 ha         1 U4W       0.104000
     49 H25          6.3480    -1.5020    -2.0270 ha         1 U4W       0.099000
     50 H28          2.9710    -3.8480    -4.7750 ha         1 U4W       0.107000
     51 H30          4.8930    -5.9920    -4.5440 hn         1 U4W       0.155700
     52 H22          8.1710    -3.2300    -1.4970 hn         1 U4W       0.177500
     53 H10          9.7430    -2.7650    -0.6930 ha         1 U4W       0.088000
     54 H7          10.0770    -7.3010    -1.9610 hn         1 U4W       0.365800
     55 H13         12.9200    -6.4690     0.1400 ha         1 U4W       0.137000
     56 H6          12.0460    -8.1760     0.0590 h1         1 U4W       0.039700
     57 H11C        10.6000    -9.7110    -2.1290 hc         1 U4W       0.025200
     58 H12C        10.0810    -9.5880    -0.4390 hc         1 U4W       0.025200
     59 H51C        13.4610    -7.3680    -1.8000 hc         1 U4W       0.025200
     60 H52C        12.5750    -8.4130    -2.9240 hc         1 U4W       0.025200
     61 H21C        11.3060   -11.6990    -0.8420 hc         1 U4W       0.023200
     62 H22C        12.1900   -10.6540     0.2840 hc         1 U4W       0.023200
     63 H3          12.7200   -10.8910    -2.6990 h1         1 U4W      -0.000300
     64 H42         13.9980   -12.4530    -2.0740 ho         1 U4W       0.388000
     65 H41C        14.6850    -9.4790    -2.2030 hc         1 U4W       0.023200
     66 H42C        14.1670    -9.3560    -0.5120 hc         1 U4W       0.023200
     67 H11         11.7580    -2.3740     0.6320 ha         1 U4W       0.126000
     68 H151        12.8280    -2.5560     2.3210 h1         1 U4W       0.026200
     69 H152        13.6250    -2.1090     0.8020 h1         1 U4W       0.026200
     70 H191        13.6470    -6.1020     2.0130 h1         1 U4W       0.026200
     71 H192        12.8410    -4.8940     3.0300 h1         1 U4W       0.026200
     72 H161        15.0070    -1.5030     2.7750 h1         1 U4W       0.015450
     73 H162        15.8120    -2.7110     1.7580 h1         1 U4W       0.015450
     74 H201        16.2680    -3.8580     5.2200 h1         1 U4W       0.001033
     75 H202        17.1340    -3.3750     3.7550 h1         1 U4W       0.001033
     76 H203        16.2600    -2.1660     4.7050 h1         1 U4W       0.001033
     77 H181        15.0260    -5.4950     3.9880 h1         1 U4W       0.015450
     78 H182        15.8240    -5.0500     2.4690 h1         1 U4W       0.015450
@<TRIPOS>BOND
     1     1     2 1   
     2     2     3 ar  
     3     2     7 ar  
     4     3     4 ar  
     5     3    43 1   
     6     4     5 1   
     7     4     6 ar  
     8     6     8 ar  
     9     6    45 1   
    10     7     8 ar  
    11     7    44 1   
    12     8     9 1   
    13     9    10 1   
    14     9    46 1   
    15     9    47 1   
    16    10    11 ar  
    17    10    16 ar  
    18    11    12 ar  
    19    11    48 1   
    20    12    13 ar  
    21    12    50 1   
    22    13    14 1   
    23    13    17 ar  
    24    14    15 1   
    25    14    51 1   
    26    15    18 2   
    27    16    17 ar  
    28    16    49 1   
    29    17    18 1   
    30    18    19 1   
    31    19    20 1   
    32    19    52 1   
    33    20    21 2   
    34    20    22 1   
    35    22    23 ar  
    36    22    35 ar  
    37    23    24 1   
    38    23    32 ar  
    39    24    25 1   
    40    24    54 1   
    41    25    26 1   
    42    25    31 1   
    43    25    56 1   
    44    26    27 1   
    45    26    57 1   
    46    26    58 1   
    47    27    28 1   
    48    27    61 1   
    49    27    62 1   
    50    28    29 1   
    51    28    30 1   
    52    28    63 1   
    53    29    64 1   
    54    30    31 1   
    55    30    65 1   
    56    30    66 1   
    57    31    59 1   
    58    31    60 1   
    59    32    33 ar  
    60    32    55 1   
    61    33    34 ar  
    62    33    36 1   
    63    34    35 ar  
    64    34    67 1   
    65    35    53 1   
    66    36    37 1   
    67    36    42 1   
    68    37    38 1   
    69    37    68 1   
    70    37    69 1   
    71    38    39 1   
    72    38    72 1   
    73    38    73 1   
    74    39    40 1   
    75    39    41 1   
    76    40    74 1   
    77    40    75 1   
    78    40    76 1   
    79    41    42 1   
    80    41    77 1   
    81    41    78 1   
    82    42    70 1   
    83    42    71 1   
@<TRIPOS>SUBSTRUCTURE
     1 U4W         1 TEMP              0 ****  ****    0 ROOT
