@<TRIPOS>MOLECULE
molecule
   78    83     1     0     0
SMALL
bcc


@<TRIPOS>ATOM
      1 F40          0.0000     0.0000     0.0000 f          1 U4W      -0.133900
      2 C35          1.3510     0.0000     0.0000 ca         1 U4W       0.163900
      3 C36          2.0420     0.0000     1.1990 ca         1 U4W      -0.214000
      4 C37          3.4280     0.0000     1.1980 ca         1 U4W       0.163900
      5 F39          4.1040    -0.0010     2.3670 f          1 U4W      -0.133900
      6 C38          4.1180     0.0020    -0.0030 ca         1 U4W      -0.180500
      7 C34          2.0440    -0.0050    -1.1980 ca         1 U4W      -0.180500
      8 C33          3.4260     0.0020    -1.1990 ca         1 U4W      -0.024300
      9 C32          4.1780     0.0030    -2.5040 c3         1 U4W       0.017200
     10 C26          4.4300    -1.4170    -2.9410 ca         1 U4W      -0.130300
     11 C27          3.5000    -2.0660    -3.7420 ca         1 U4W      -0.073000
     12 C28          3.7050    -3.3530    -4.1500 ca         1 U4W      -0.157000
     13 C29          4.8590    -4.0290    -3.7600 ca         1 U4W      -0.005200
     14 N30          5.3460    -5.2890    -3.9950 na         1 U4W      -0.050100
     15 N31          6.5760    -5.4340    -3.3460 nc         1 U4W      -0.487100
     16 C25          5.5730    -2.0530    -2.5470 ca         1 U4W      -0.047000
     17 C24          5.8040    -3.3720    -2.9480 ca         1 U4W      -0.261900
     18 C23          6.8840    -4.3310    -2.7170 cd         1 U4W       0.437500
     19 N22          8.0390    -4.1080    -1.9600 ns         1 U4W      -0.455400
     20 C21          8.9590    -5.0840    -1.8300 c          1 U4W       0.695700
     21 O41          8.7850    -6.1600    -2.3710 o          1 U4W      -0.593100
     22 C9          10.1730    -4.8480    -1.0340 ca         1 U4W      -0.279600
     23 C8          11.0770    -5.8990    -0.7970 ca         1 U4W       0.290600
     24 N7          10.8290    -7.1640    -1.3150 nu         1 U4W      -0.803600
     25 C6          11.7060    -8.2840    -0.9640 c3         1 U4W       0.231500
     26 C1          10.9350    -9.5980    -1.1050 c3         1 U4W      -0.096400
     27 C2          11.8510   -10.7690    -0.7390 c3         1 U4W      -0.089400
     28 C3          13.0600   -10.7820    -1.6760 c3         1 U4W       0.145100
     29 O42         13.9150   -11.8750    -1.3340 oh         1 U4W      -0.606800
     30 C4          13.8310    -9.4680    -1.5360 c3         1 U4W      -0.089400
     31 C5          12.9150    -8.2980    -1.9020 c3         1 U4W      -0.096400
     32 C13         12.2180    -5.6650    -0.0460 ca         1 U4W      -0.261000
     33 C12         12.4610    -4.3970     0.4670 ca         1 U4W       0.182600
     34 C11         11.5600    -3.3600     0.2300 ca         1 U4W      -0.254000
     35 C10         10.4370    -3.5770    -0.5140 ca         1 U4W      -0.029000
     36 N14         13.6050    -4.1630     1.2210 nh         1 U4W      -0.599000
     37 C15         13.6650    -2.7620     1.6650 c3         1 U4W       0.166300
     38 C16         14.9760    -2.5260     2.4210 c3         1 U4W       0.159300
     39 N17         15.0470    -3.4420     3.5670 n3         1 U4W      -0.733600
     40 C20         16.2570    -3.1940     4.3640 c3         1 U4W       0.152100
     41 C18         14.9870    -4.8420     3.1240 c3         1 U4W       0.159300
     42 C19         13.6780    -5.0790     2.3680 c3         1 U4W       0.166300
     43 H36          1.5010     0.0410     2.1360 ha         1 U4W       0.160000
     44 H34          1.5020    -0.0040    -2.1370 ha         1 U4W       0.147000
     45 H38          5.2020     0.0050    -0.0040 ha         1 U4W       0.147000
     46 H321         5.1250     0.5140    -2.3750 hc         1 U4W       0.058700
     47 H322         3.5920     0.5140    -3.2590 hc         1 U4W       0.058700
     48 H27          2.6020    -1.5440    -4.0500 ha         1 U4W       0.133000
     49 H25          6.3480    -1.5020    -2.0270 ha         1 U4W       0.125000
     50 H28          2.9710    -3.8480    -4.7750 ha         1 U4W       0.134000
     51 H30          4.8930    -5.9920    -4.5440 hn         1 U4W       0.336700
     52 H22          8.1710    -3.2300    -1.4970 hn         1 U4W       0.337500
     53 H10          9.7430    -2.7650    -0.6930 ha         1 U4W       0.116000
     54 H7          10.0770    -7.3010    -1.9610 hn         1 U4W       0.488800
     55 H13         12.9200    -6.4690     0.1400 ha         1 U4W       0.147000
     56 H6          12.0460    -8.1760     0.0590 h1         1 U4W       0.057700
     57 H11C        10.6000    -9.7110    -2.1290 hc         1 U4W       0.053950
     58 H12C        10.0810    -9.5880    -0.4390 hc         1 U4W       0.053950
     59 H51C        13.4610    -7.3680    -1.8000 hc         1 U4W       0.053950
     60 H52C        12.5750    -8.4130    -2.9240 hc         1 U4W       0.053950
     61 H21C        11.3060   -11.6990    -0.8420 hc         1 U4W       0.052950
     62 H22C        12.1900   -10.6540     0.2840 hc         1 U4W       0.052950
     63 H3          12.7200   -10.8910    -2.6990 h1         1 U4W       0.031700
     64 H42         13.9980   -12.4530    -2.0740 ho         1 U4W       0.401000
     65 H41C        14.6850    -9.4790    -2.2030 hc         1 U4W       0.052950
     66 H42C        14.1670    -9.3560    -0.5120 hc         1 U4W       0.052950
     67 H11         11.7580    -2.3740     0.6320 ha         1 U4W       0.137000
     68 H151        12.8280    -2.5560     2.3210 h1         1 U4W       0.052450
     69 H152        13.6250    -2.1090     0.8020 h1         1 U4W       0.052450
     70 H191        13.6470    -6.1020     2.0130 h1         1 U4W       0.052450
     71 H192        12.8410    -4.8940     3.0300 h1         1 U4W       0.052450
     72 H161        15.0070    -1.5030     2.7750 h1         1 U4W       0.043700
     73 H162        15.8120    -2.7110     1.7580 h1         1 U4W       0.043700
     74 H201        16.2680    -3.8580     5.2200 h1         1 U4W       0.033700
     75 H202        17.1340    -3.3750     3.7550 h1         1 U4W       0.033700
     76 H203        16.2600    -2.1660     4.7050 h1         1 U4W       0.033700
     77 H181        15.0260    -5.4950     3.9880 h1         1 U4W       0.043700
     78 H182        15.8240    -5.0500     2.4690 h1         1 U4W       0.043700
@<TRIPOS>BOND
     1     1     2 1
     2     2     3 ar
     3     2     7 ar
     4     3     4 ar
     5     4     5 1
     6     4     6 ar
     7     6     8 ar
     8     7     8 ar
     9     8     9 1
    10     9    10 1
    11    10    11 ar
    12    10    16 ar
    13    11    12 ar
    14    12    13 ar
    15    13    14 1
    16    13    17 ar
    17    14    15 1
    18    15    18 2
    19    16    17 ar
    20    17    18 1
    21    18    19 1
    22    19    20 1
    23    20    21 2
    24    20    22 1
    25    22    23 ar
    26    22    35 ar
    27    23    24 1
    28    23    32 ar
    29    24    25 1
    30    25    26 1
    31    25    31 1
    32    26    27 1
    33    27    28 1
    34    28    29 1
    35    28    30 1
    36    30    31 1
    37    32    33 ar
    38    33    34 ar
    39    33    36 1
    40    34    35 ar
    41    36    37 1
    42    36    42 1
    43    37    38 1
    44    38    39 1
    45    39    40 1
    46    39    41 1
    47    41    42 1
    48     3    43 1
    49     7    44 1
    50     6    45 1
    51     9    46 1
    52     9    47 1
    53    11    48 1
    54    16    49 1
    55    12    50 1
    56    14    51 1
    57    19    52 1
    58    35    53 1
    59    24    54 1
    60    32    55 1
    61    25    56 1
    62    26    57 1
    63    26    58 1
    64    31    59 1
    65    31    60 1
    66    27    61 1
    67    27    62 1
    68    28    63 1
    69    29    64 1
    70    30    65 1
    71    30    66 1
    72    34    67 1
    73    37    68 1
    74    37    69 1
    75    42    70 1
    76    42    71 1
    77    38    72 1
    78    38    73 1
    79    40    74 1
    80    40    75 1
    81    40    76 1
    82    41    77 1
    83    41    78 1
@<TRIPOS>SUBSTRUCTURE
     1 U4W         1 TEMP              0 ****  ****    0 ROOT
