@<TRIPOS>MOLECULE
U51
   55    58     1     0     0
SMALL
bcc


@<TRIPOS>ATOM
      1 OAW          0.0000     0.0000     0.0000 o          1 U51      -0.640000
      2 CAV          1.2080     0.0000     0.0000 c2         1 U51       0.400000
      3 OAX          1.8780     0.0000     1.1630 o          1 U51      -0.640000
      4 CAR          1.9610    -0.0070    -1.3040 c3         1 U51      -0.164000
      5 CAQ          0.9670    -0.0130    -2.4670 c3         1 U51      -0.089000
      6 CAP          1.7330    -0.0210    -3.7920 c3         1 U51      -0.103000
      7 CAO          0.7540    -0.0260    -4.9380 c2         1 U51      -0.110000
      8 CAN          0.8550     0.8670    -5.8910 c2         1 U51      -0.199000
      9 CAF          2.0440     1.7920    -5.9340 c3         1 U51      -0.091000
     10 CAD          2.7060     1.7080    -7.3100 c3         1 U51      -0.085000
     11 CAC          1.8070     2.3840    -8.3960 c3         1 U51      -0.100000
     12 CAB          2.8940     2.7530    -9.4720 c3         1 U51      -0.153000
     13 NAT          1.5500     3.7460    -7.8430 n2         1 U51      -0.011000
     14 NAS          2.5930     4.4240    -7.8700 n2         1 U51      -0.049000
     15 CAA          3.7120     3.6210    -8.4460 c3         1 U51      -0.126000
     16 CAE          4.0050     2.5520    -7.3450 DU         1 U51      -0.117000
     17 CAG          5.1830     1.6980    -7.7350 c2         1 U51      -0.205000
     18 CAH          6.1980     1.5680    -6.9160 c2         1 U51      -0.182000
     19 CAI          7.3770     0.7140    -7.3050 DU         1 U51      -0.106000
     20 CAJ          8.6600     1.5410    -7.2110 c3         1 U51      -0.101000
     21 CAK          9.8570     0.6740    -7.6060 c3         1 U51      -0.113000
     22 CAL         11.1400     1.5020    -7.5110 c3         1 U51      -0.108000
     23 CAM         12.3360     0.6350    -7.9060 c3         1 U51      -0.108000
     24 CAU         13.6200     1.4610    -7.8110 c3         1 U51      -0.112000
     25 H2           2.5840    -0.8920    -1.3570 hc         1 U51       0.043000
     26 H3           2.5840     0.8770    -1.3660 hc         1 U51       0.043000
     27 H4           0.3450     0.8730    -2.4150 hc         1 U51       0.062000
     28 H5           0.3440    -0.8960    -2.4050 hc         1 U51       0.062000
     29 H6           2.3570     0.8630    -3.8540 hc         1 U51       0.057000
     30 H7           2.3550    -0.9060    -3.8440 hc         1 U51       0.057000
     31 H8          -0.1020    -0.6890    -4.9100 ha         1 U51       0.099000
     32 H10          0.1490     0.8610    -6.7130 ha         1 U51       0.095000
     33 H12          2.7570     1.4990    -5.1720 hc         1 U51       0.085500
     34 H13          1.7180     2.8080    -5.7510 hc         1 U51       0.085500
     35 H14          2.9130     0.6780    -7.5740 hc         1 U51       0.092000
     36 H15          0.9480     1.8240    -8.7450 h1         1 U51       0.112000
     37 H16          2.4880     3.3450   -10.2830 hc         1 U51       0.081000
     38 H17          3.4480     1.8860    -9.8140 hc         1 U51       0.081000
     39 H20          4.5580     4.1700    -8.8410 h1         1 U51       0.111000
     40 H21          4.1760     3.0270    -6.3870 ha         1 U51       0.122000
     41 H22          5.1700     2.7800    -7.7790 DU         1 U51       0.176000
     42 H23          6.2110     0.4850    -6.8710 DU         1 U51       0.168000
     43 H24          7.4440    -0.1350    -6.6360 ha         1 U51       0.063000
     44 H25          7.2480     0.3630    -8.3220 ha         1 U51       0.063000
     45 H26          8.7880     1.8930    -6.1940 hc         1 U51       0.060500
     46 H27          8.5920     2.3900    -7.8800 hc         1 U51       0.060500
     47 H28          9.9240    -0.1750    -6.9360 hc         1 U51       0.053000
     48 H29          9.7280     0.3220    -8.6220 hc         1 U51       0.053000
     49 H30         11.2680     1.8530    -6.4940 hc         1 U51       0.055000
     50 H31         11.0720     2.3510    -8.1800 hc         1 U51       0.055000
     51 H32         12.4030    -0.2150    -7.2370 hc         1 U51       0.050500
     52 H33         12.2070     0.2840    -8.9230 hc         1 U51       0.050500
     53 H34         13.5530     2.3100    -8.4810 hc         1 U51       0.038667
     54 H35         13.7480     1.8130    -6.7940 hc         1 U51       0.038667
     55 H36         14.4670     0.8460    -8.0890 hc         1 U51       0.038667
@<TRIPOS>BOND
     1     1     2 1   
     2     2     3 1   
     3     2     4 1   
     4     4     5 1   
     5     4    25 1   
     6     4    26 1   
     7     5     6 1   
     8     5    27 1   
     9     5    28 1   
    10     6     7 1   
    11     6    29 1   
    12     6    30 1   
    13     7     8 1   
    14     7    31 1   
    15     8     9 1   
    16     8    32 1   
    17     9    10 1   
    18     9    33 1   
    19     9    34 1   
    20    10    11 1   
    21    10    16 1   
    22    10    35 1   
    23    11    12 1   
    24    11    13 1   
    25    11    36 1   
    26    12    15 1   
    27    12    37 1   
    28    12    38 1   
    29    13    14 1   
    30    14    15 1   
    31    15    16 1   
    32    15    39 1   
    33    16    17 1   
    34    16    40 1   
    35    16    41 1   
    36    17    18 1   
    37    17    41 1   
    38    18    19 1   
    39    18    42 1   
    40    19    20 1   
    41    19    42 1   
    42    19    43 1   
    43    19    44 1   
    44    20    21 1   
    45    20    45 1   
    46    20    46 1   
    47    21    22 1   
    48    21    47 1   
    49    21    48 1   
    50    22    23 1   
    51    22    49 1   
    52    22    50 1   
    53    23    24 1   
    54    23    51 1   
    55    23    52 1   
    56    24    53 1   
    57    24    54 1   
    58    24    55 1   
@<TRIPOS>SUBSTRUCTURE
     1 U51         1 TEMP              0 ****  ****    0 ROOT
