@<TRIPOS>MOLECULE
molecule
   55    56     1     0     0
SMALL
bcc


@<TRIPOS>ATOM
      1 OAW          0.0000     0.0000     0.0000 o          1 U51      -0.845800
      2 CAV          1.2080     0.0000     0.0000 c          1 U51       0.892600
      3 OAX          1.8780     0.0000     1.1630 o          1 U51      -0.845800
      4 CAR          1.9610    -0.0070    -1.3040 c3         1 U51      -0.187400
      5 CAQ          0.9670    -0.0130    -2.4670 c3         1 U51      -0.014400
      6 CAP          1.7330    -0.0210    -3.7920 c3         1 U51      -0.145200
      7 CAO          0.7540    -0.0260    -4.9380 c2         1 U51      -0.323200
      8 CAN          0.8550     0.8670    -5.8910 c2         1 U51      -0.395200
      9 CAF          2.0440     1.7920    -5.9340 c3         1 U51      -0.142200
     10 CAD          2.7060     1.7080    -7.3100 c3         1 U51      -0.027700
     11 CAC          1.8070     2.3840    -8.3960 c3         1 U51       0.049500
     12 CAB          2.8940     2.7530    -9.4720 c3         1 U51      -0.134400
     13 NAT          1.5500     3.7460    -7.8430 n2         1 U51      -0.160200
     14 NAS          2.5930     4.4240    -7.8700 n2         1 U51      -0.185200
     15 CAA          3.7120     3.6210    -8.4460 c3         1 U51       0.028500
     16 CAE          4.0050     2.5520    -7.3450 c3         1 U51      -0.053500
     17 CAG          5.1830     1.6980    -7.7350 c2         1 U51      -0.174200
     18 CAH          6.1980     1.5680    -6.9160 c2         1 U51      -0.162200
     19 CAI          7.3770     0.7140    -7.3050 c3         1 U51      -0.049200
     20 CAJ          8.6600     1.5410    -7.2110 c3         1 U51      -0.078400
     21 CAK          9.8570     0.6740    -7.6060 c3         1 U51      -0.082400
     22 CAL         11.1400     1.5020    -7.5110 c3         1 U51      -0.081400
     23 CAM         12.3360     0.6350    -7.9060 c3         1 U51      -0.084400
     24 CAU         13.6200     1.4610    -7.8110 c3         1 U51      -0.092100
     25 H2           2.5840     0.8770    -1.3660 hc         1 U51       0.027700
     26 H3           2.5840    -0.8920    -1.3570 hc         1 U51       0.027700
     27 H4           0.3450     0.8730    -2.4150 hc         1 U51       0.066700
     28 H5           0.3440    -0.8960    -2.4050 hc         1 U51       0.066700
     29 H6           2.3570     0.8630    -3.8540 hc         1 U51       0.027700
     30 H7           2.3550    -0.9060    -3.8440 hc         1 U51       0.027700
     31 H8           1.7180    -0.5120    -5.0260 ha         1 U51       0.337000
     32 H10          0.8760     1.7780    -5.3040 ha         1 U51       0.324000
     33 H12          1.7180     2.8080    -5.7510 hc         1 U51       0.044700
     34 H13          2.7570     1.4990    -5.1720 hc         1 U51       0.044700
     35 H14          2.9130     0.6780    -7.5740 hc         1 U51       0.075700
     36 H15          0.9480     1.8240    -8.7450 h1         1 U51       0.129700
     37 H16          2.4880     3.3450   -10.2830 hc         1 U51       0.066200
     38 H17          3.4480     1.8860    -9.8140 hc         1 U51       0.066200
     39 H20          4.5580     4.1700    -8.8410 h1         1 U51       0.104700
     40 H21          4.1760     3.0280    -6.3870 hc         1 U51       0.078700
     41 H22          5.1920     1.1920    -8.6920 ha         1 U51       0.124000
     42 H23          6.1890     2.0740    -5.9580 ha         1 U51       0.132000
     43 H24          7.2480     0.3630    -8.3220 hc         1 U51       0.047700
     44 H25          7.4440    -0.1350    -6.6360 hc         1 U51       0.047700
     45 H26          8.5920     2.3900    -7.8800 hc         1 U51       0.044200
     46 H27          8.7880     1.8930    -6.1940 hc         1 U51       0.044200
     47 H28          9.9240    -0.1750    -6.9360 hc         1 U51       0.040700
     48 H29          9.7280     0.3220    -8.6220 hc         1 U51       0.040700
     49 H30         11.0720     2.3510    -8.1800 hc         1 U51       0.041700
     50 H31         11.2680     1.8530    -6.4940 hc         1 U51       0.041700
     51 H32         12.4030    -0.2150    -7.2370 hc         1 U51       0.039200
     52 H33         12.2070     0.2840    -8.9230 hc         1 U51       0.039200
     53 H34         13.5530     2.3110    -8.4800 hc         1 U51       0.031700
     54 H35         14.4660     0.8470    -8.0910 hc         1 U51       0.031700
     55 H36         13.7490     1.8120    -6.7940 hc         1 U51       0.031700
@<TRIPOS>BOND
     1    24    23 1
     2    23    22 1
     3    22    21 1
     4    21    20 1
     5    20    19 1
     6     1     2 1
     7    19    18 1
     8     5     6 1
     9     5     4 1
    10     6     7 1
    11     2     4 1
    12     2     3 1
    13    18    17 2
    14    17    16 1
    15     7     8 2
    16    10    16 1
    17    10     9 1
    18    10    11 1
    19    12    11 1
    20    12    15 1
    21    16    15 1
    22     8     9 1
    23    11    13 1
    24    15    14 1
    25    13    14 2
    26     4    25 1
    27     4    26 1
    28     5    27 1
    29     5    28 1
    30     6    29 1
    31     6    30 1
    32     7    31 1
    33     8    32 1
    34     9    33 1
    35     9    34 1
    36    10    35 1
    37    11    36 1
    38    12    37 1
    39    12    38 1
    40    15    39 1
    41    16    40 1
    42    17    41 1
    43    18    42 1
    44    19    43 1
    45    19    44 1
    46    20    45 1
    47    20    46 1
    48    21    47 1
    49    21    48 1
    50    22    49 1
    51    22    50 1
    52    23    51 1
    53    23    52 1
    54    24    53 1
    55    24    54 1
    56    24    55 1
@<TRIPOS>SUBSTRUCTURE
     1 U51         1 TEMP              0 ****  ****    0 ROOT
