@<TRIPOS>MOLECULE
molecule
   63    66     1     0     0
SMALL
bcc


@<TRIPOS>ATOM
      1 C4           0.0000     0.0000     0.0000 c          1 U52       0.644100
      2 C5           1.5070     0.0000     0.0000 c3         1 U52       0.166400
      3 C10          3.4700     0.0040    -3.3750 c          1 U52       0.723700
      4 C13          8.1130     0.0050    -2.2700 ca         1 U52      -0.140000
      5 C15          5.7750     0.0160    -2.8060 ca         1 U52       0.031600
      6 C17          6.4960     0.0100    -0.4870 ca         1 U52      -0.098000
      7 C22          8.6880     0.6760     1.2440 ca         1 U52       0.755200
      8 C24          7.4490     2.0350     2.6330 ca         1 U52       0.908900
      9 C26          9.4650     1.2490     3.4290 ca         1 U52       0.525200
     10 C28          6.3150     3.3940     4.1820 c3         1 U52       0.178800
     11 N2          -0.6730     0.0000     1.1680 ns         1 U52      -0.593900
     12 O3          -0.6060     0.0040    -1.0500 o          1 U52      -0.552100
     13 O6           1.9830    -0.0010    -1.3480 os         1 U52      -0.374900
     14 O7           2.4980     0.0040    -4.1090 o          1 U52      -0.605500
     15 N9           4.7620     0.0100    -3.7460 n          1 U52      -0.323000
     16 C11          3.0940     0.0030    -1.9630 cc         1 U52       0.167900
     17 C12          4.0640     0.0020    -1.0110 cd         1 U52      -0.305200
     18 C14          7.1080     0.0170    -3.2100 ca         1 U52      -0.145000
     19 C16          5.4660     0.0040    -1.4340 ca         1 U52      -0.045800
     20 C18          7.8120     0.0280    -0.9080 ca         1 U52       0.127600
     21 N19          8.8460     0.0160     0.0350 nu         1 U52      -0.756300
     22 N20          6.3050     2.7870     2.8450 nh         1 U52      -0.684300
     23 N23          7.6040     1.4090     1.4770 nb         1 U52      -0.808000
     24 N25          8.3570     1.9580     3.5950 nb         1 U52      -0.811000
     25 C27          9.6640     0.5750     2.2390 ca         1 U52      -0.326200
     26 C29          4.9770     4.0940     4.4360 c3         1 U52      -0.076700
     27 C30          4.7570     5.1680     3.3670 c3         1 U52      -0.078400
     28 C31          4.8000     4.5150     1.9830 c3         1 U52      -0.076700
     29 C32          6.1420     3.8050     1.8000 c3         1 U52       0.178800
     30 C33          4.9970     4.7460     5.8200 c3         1 U52      -0.088100
     31 C34          4.6410     5.5910     0.9060 c3         1 U52      -0.088100
     32 H1           1.8680     0.8850     0.5100 h1         1 U52       0.051700
     33 H2           1.8680    -0.8840     0.5110 h1         1 U52       0.051700
     34 H3           5.6790    -0.8740    -5.4060 h1         1 U52       0.057700
     35 H4           4.1930     0.0180    -5.7590 h1         1 U52       0.057700
     36 H5           5.6870     0.8950    -5.4010 h1         1 U52       0.057700
     37 H6           9.1480     0.0190    -2.5910 ha         1 U52       0.133000
     38 H7           6.2630     0.0280     0.5710 ha         1 U52       0.168000
     39 H8          10.2020     1.1920     4.2200 h4         1 U52       0.040100
     40 H9           6.4640     2.6220     4.9270 h1         1 U52       0.056700
     41 H10          7.1170     4.1200     4.2410 h1         1 U52       0.056700
     42 H11         -2.4990     0.0000     2.1900 h1         1 U52       0.045033
     43 H12         -2.5000     0.8830     0.6570 h1         1 U52       0.045033
     44 H13         -2.4990    -0.8860     0.6590 h1         1 U52       0.045033
     45 H14         -0.1730    -0.0290     2.0340 hn         1 U52       0.310500
     46 H15          3.8050     0.0020     0.0410 ha         1 U52       0.142000
     47 H16          7.3530    -0.0010    -4.2650 ha         1 U52       0.137000
     48 H17          9.6840    -0.4990    -0.1490 hn         1 U52       0.468800
     49 H18          4.1750     3.3660     4.3850 hc         1 U52       0.061200
     50 H19          3.7910     5.6340     3.5170 hc         1 U52       0.045200
     51 H20          5.5400     5.9140     3.4390 hc         1 U52       0.045200
     52 H21          3.9960     3.7930     1.9010 hc         1 U52       0.061200
     53 H22          6.9450     4.5280     1.8740 h1         1 U52       0.056700
     54 H23          6.1670     3.3280     0.8270 h1         1 U52       0.056700
     55 H24          5.1350     3.9830     6.5760 hc         1 U52       0.037367
     56 H25          4.0580     5.2590     5.9910 hc         1 U52       0.037367
     57 H26          5.8120     5.4570     5.8720 hc         1 U52       0.037367
     58 H27          5.4580     6.2990     0.9790 hc         1 U52       0.037367
     59 H28          3.7000     6.1100     1.0500 hc         1 U52       0.037367
     60 H29          4.6510     5.1270    -0.0730 hc         1 U52       0.037367
     61 C8           5.1020     0.0120    -5.1700 c3         1 U52       0.088300
     62 C1          -2.1380    -0.0010     1.1680 c3         1 U52       0.108300
     63 Cl1         11.0940    -0.3760     1.9870 cl         1 U52      -0.102400
@<TRIPOS>BOND
     1    61    15 1
     2    14     3 2
     3    15     3 1
     4    15     5 1
     5     3    16 1
     6    18     5 ar
     7    18     4 ar
     8    30    26 1
     9     5    19 ar
    10    16    13 1
    11    16    17 2
    12    12     1 2
    13    13     2 1
    14     4    20 ar
    15    19    17 1
    16    19     6 ar
    17    26    10 1
    18    26    27 1
    19     1     2 1
    20     1    11 1
    21    10    22 1
    22    27    28 1
    23    20     6 ar
    24    20    21 1
    25    62    11 1
    26    22    29 1
    27    22     8 1
    28    23     8 ar
    29    23     7 ar
    30    21     7 1
    31    28    29 1
    32    28    31 1
    33     8    24 ar
    34     7    25 ar
    35    24     9 ar
    36    25     9 ar
    37    25    63 1
    38     2    32 1
    39     2    33 1
    40    61    34 1
    41    61    35 1
    42    61    36 1
    43     4    37 1
    44     6    38 1
    45     9    39 1
    46    10    40 1
    47    10    41 1
    48    62    42 1
    49    62    43 1
    50    62    44 1
    51    11    45 1
    52    17    46 1
    53    18    47 1
    54    21    48 1
    55    26    49 1
    56    27    50 1
    57    27    51 1
    58    28    52 1
    59    29    53 1
    60    29    54 1
    61    30    55 1
    62    30    56 1
    63    30    57 1
    64    31    58 1
    65    31    59 1
    66    31    60 1
@<TRIPOS>SUBSTRUCTURE
     1 U52         1 TEMP              0 ****  ****    0 ROOT
