@<TRIPOS>MOLECULE
U52
   63    66     1     0     0
SMALL
bcc


@<TRIPOS>ATOM
      1 C4           0.0000     0.0000     0.0000 c          1 U52       0.548100
      2 C5           1.5070     0.0000     0.0000 c3         1 U52       0.219400
      3 C10          3.4700     0.0040    -3.3750 c          1 U52       0.628700
      4 C13          8.1130     0.0050    -2.2700 ca         1 U52      -0.110000
      5 C15          5.7750     0.0160    -2.8060 ca         1 U52      -0.120400
      6 C17          6.4960     0.0100    -0.4870 ca         1 U52      -0.080000
      7 C22          8.6880     0.6760     1.2440 ca         1 U52       0.555200
      8 C24          7.4490     2.0350     2.6330 ca         1 U52       0.746900
      9 C26          9.4650     1.2490     3.4290 ca         1 U52       0.522200
     10 C28          6.3150     3.3940     4.1820 c3         1 U52       0.141800
     11 N2          -0.6730     0.0000     1.1680 ns         1 U52      -0.200900
     12 O3          -0.6060     0.0040    -1.0500 o          1 U52      -0.595100
     13 O6           1.9830    -0.0010    -1.3480 os         1 U52      -0.308900
     14 O7           2.4980     0.0040    -4.1090 o          1 U52      -0.656500
     15 N9           4.7620     0.0100    -3.7460 n          1 U52       0.101000
     16 C11          3.0940     0.0030    -1.9630 cc         1 U52       0.164900
     17 C12          4.0640     0.0020    -1.0110 cd         1 U52      -0.320200
     18 C14          7.1080     0.0170    -3.2100 ca         1 U52      -0.120000
     19 C16          5.4660     0.0040    -1.4340 ca         1 U52      -0.020800
     20 C18          7.8120     0.0280    -0.9080 ca         1 U52      -0.025400
     21 N19          8.8460     0.0160     0.0350 nu         1 U52      -0.290300
     22 N20          6.3050     2.7870     2.8450 nh         1 U52      -0.444300
     23 N23          7.6040     1.4090     1.4770 nb         1 U52      -0.702000
     24 N25          8.3570     1.9580     3.5950 nb         1 U52      -0.718000
     25 C27          9.6640     0.5750     2.2390 ca         1 U52      -0.402200
     26 C29          4.9770     4.0940     4.4360 c3         1 U52      -0.054700
     27 C30          4.7570     5.1680     3.3670 c3         1 U52      -0.028400
     28 C31          4.8000     4.5150     1.9830 c3         1 U52      -0.054700
     29 C32          6.1420     3.8050     1.8000 c3         1 U52       0.141800
     30 C33          4.9970     4.7460     5.8200 c3         1 U52       0.009400
     31 C34          4.6410     5.5910     0.9060 c3         1 U52       0.009400
     32 H1           1.8680     0.8850     0.5100 h1         1 U52       0.006700
     33 H2           1.8680    -0.8840     0.5110 h1         1 U52       0.006700
     34 H3           5.6790    -0.8740    -5.4060 h1         1 U52       0.027033
     35 H4           4.1930     0.0180    -5.7590 h1         1 U52       0.027033
     36 H5           5.6870     0.8950    -5.4010 h1         1 U52       0.027033
     37 H6           9.1480     0.0190    -2.5910 ha         1 U52       0.106000
     38 H7           6.2630     0.0280     0.5710 ha         1 U52       0.143000
     39 H8          10.2020     1.1920     4.2200 h4         1 U52      -0.010900
     40 H9           6.4640     2.6220     4.9270 h1         1 U52       0.030200
     41 H10          7.1170     4.1200     4.2410 h1         1 U52       0.030200
     42 H11         -2.4990     0.0000     2.1900 h1         1 U52       0.010700
     43 H12         -2.5000     0.8830     0.6570 h1         1 U52       0.010700
     44 H13         -2.4990    -0.8860     0.6590 h1         1 U52       0.010700
     45 H14         -0.1730    -0.0290     2.0340 hn         1 U52       0.166500
     46 H15          3.8050     0.0020     0.0410 ha         1 U52       0.134000
     47 H16          7.3530    -0.0010    -4.2650 ha         1 U52       0.116000
     48 H17          9.6840    -0.4990    -0.1490 hn         1 U52       0.295800
     49 H18          4.1750     3.3660     4.3850 hc         1 U52       0.034200
     50 H19          3.7910     5.6340     3.5170 hc         1 U52       0.019700
     51 H20          5.5400     5.9140     3.4390 hc         1 U52       0.019700
     52 H21          3.9960     3.7930     1.9010 hc         1 U52       0.034200
     53 H22          6.9450     4.5280     1.8740 h1         1 U52       0.030200
     54 H23          6.1670     3.3280     0.8270 h1         1 U52       0.030200
     55 H24          5.1350     3.9830     6.5760 hc         1 U52       0.004367
     56 H25          4.0580     5.2590     5.9910 hc         1 U52       0.004367
     57 H26          5.8120     5.4570     5.8720 hc         1 U52       0.004367
     58 H27          5.4580     6.2990     0.9790 hc         1 U52       0.004367
     59 H28          3.7000     6.1100     1.0500 hc         1 U52       0.004367
     60 H29          4.6510     5.1270    -0.0730 hc         1 U52       0.004367
     61 C8           5.1020     0.0120    -5.1700 c3         1 U52       0.040300
     62 C1          -2.1380    -0.0010     1.1680 c3         1 U52       0.091300
     63 Cl1         11.0940    -0.3760     1.9870 cl         1 U52      -0.000400
@<TRIPOS>BOND
     1     1     2 1   
     2     1    11 1   
     3     1    12 2   
     4     2    13 1   
     5     2    32 1   
     6     2    33 1   
     7     3    14 2   
     8     3    15 1   
     9     3    16 1   
    10     4    18 ar  
    11     4    20 ar  
    12     4    37 1   
    13     5    15 1   
    14     5    18 ar  
    15     5    19 ar  
    16     6    19 ar  
    17     6    20 ar  
    18     6    38 1   
    19     7    21 1   
    20     7    23 ar  
    21     7    25 ar  
    22     8    22 1   
    23     8    23 ar  
    24     8    24 ar  
    25     9    24 ar  
    26     9    25 ar  
    27     9    39 1   
    28    10    22 1   
    29    10    26 1   
    30    10    40 1   
    31    10    41 1   
    32    11    45 1   
    33    11    62 1   
    34    13    16 1   
    35    15    61 1   
    36    16    17 2   
    37    17    19 1   
    38    17    46 1   
    39    18    47 1   
    40    20    21 1   
    41    21    48 1   
    42    22    29 1   
    43    25    63 1   
    44    26    27 1   
    45    26    30 1   
    46    26    49 1   
    47    27    28 1   
    48    27    50 1   
    49    27    51 1   
    50    28    29 1   
    51    28    31 1   
    52    28    52 1   
    53    29    53 1   
    54    29    54 1   
    55    30    55 1   
    56    30    56 1   
    57    30    57 1   
    58    31    58 1   
    59    31    59 1   
    60    31    60 1   
    61    34    61 1   
    62    35    61 1   
    63    36    61 1   
    64    42    62 1   
    65    43    62 1   
    66    44    62 1   
@<TRIPOS>SUBSTRUCTURE
     1 U52         1 TEMP              0 ****  ****    0 ROOT
