@<TRIPOS>MOLECULE
U53
   38    39     1     0     0
SMALL
bcc


@<TRIPOS>ATOM
      1 O2           0.0000     0.0000     0.0000 o          1 U53      -0.551000
      2 C12          1.2160     0.0000     0.0000 c          1 U53       0.702700
      3 O1           1.8890     0.0000     1.1680 os         1 U53      -0.415900
      4 C13          1.0980     0.0010     2.3860 c3         1 U53       0.227400
      5 C14          2.0280     0.0000     3.6000 c3         1 U53      -0.003100
      6 C10          1.9520    -0.0070    -1.2720 ca         1 U53      -0.195900
      7 C11          3.3560    -0.0080    -1.2800 ca         1 U53       0.412200
      8 N1           4.0360    -0.0140    -2.3970 nb         1 U53      -0.540000
      9 C4           3.4350    -0.0200    -3.5980 ca         1 U53       0.341600
     10 C3           4.1950    -0.0270    -4.7770 ca         1 U53      -0.096300
     11 C2           3.5740    -0.0340    -5.9890 ca         1 U53      -0.179000
     12 C6           1.2580    -0.0190    -2.4930 ca         1 U53       0.102900
     13 S           -0.5040    -0.0250    -2.5410 ss         1 U53      -0.309000
     14 C7          -0.8230     1.7560    -2.5630 c3         1 U53       0.077700
     15 C8          -2.3330     2.0030    -2.6050 c3         1 U53       0.128700
     16 C9          -2.5930     3.4520    -2.6230 c1         1 U53       0.187700
     17 N           -2.7880     4.5700    -2.6560 n1         1 U53      -0.383800
     18 C5           2.0230    -0.0200    -3.6860 ca         1 U53      -0.084300
     19 C15          1.4050    -0.0330    -4.9430 ca         1 U53      -0.153000
     20 C1           2.1810    -0.0340    -6.0810 ca         1 U53       0.162100
     21 O            1.5860    -0.0460    -7.3030 os         1 U53      -0.302900
     22 C            2.4470    -0.0460    -8.4450 c3         1 U53       0.242700
     23 H1           0.5400     0.9280     2.4540 h1         1 U53       0.010200
     24 H2           0.4080    -0.8350     2.3690 h1         1 U53       0.010200
     25 H3           2.7160    -0.8330     3.5270 hc         1 U53       0.011367
     26 H4           2.5870     0.9280     3.6270 hc         1 U53       0.011367
     27 H5           1.4410    -0.0950     4.5050 hc         1 U53       0.011367
     28 H6           3.9020     0.0160    -0.3450 h4         1 U53      -0.002900
     29 H7           5.2770    -0.0270    -4.7240 ha         1 U53       0.119000
     30 H8           4.1620    -0.0390    -6.8980 ha         1 U53       0.124000
     31 H9          -0.4160     2.2070    -1.6660 h1         1 U53       0.046200
     32 H10         -0.3530     2.1960    -3.4340 h1         1 U53       0.046200
     33 H11         -2.8230     1.3660    -1.8790 hc         1 U53       0.045200
     34 H12         -2.7080     1.7760    -3.5960 hc         1 U53       0.045200
     35 H13          0.3240    -0.0330    -5.0140 ha         1 U53       0.151000
     36 H14          2.9990    -0.9780    -8.4800 h1         1 U53       0.000033
     37 H15          1.8530     0.0560    -9.3450 h1         1 U53       0.000033
     38 H16          3.1410     0.7820    -8.3740 h1         1 U53       0.000033
@<TRIPOS>BOND
     1     1     2 2   
     2     2     3 1   
     3     2     6 1   
     4     3     4 1   
     5     4     5 1   
     6     4    23 1   
     7     4    24 1   
     8     5    25 1   
     9     5    26 1   
    10     5    27 1   
    11     6     7 ar  
    12     6    12 ar  
    13     7     8 ar  
    14     7    28 1   
    15     8     9 ar  
    16     9    10 ar  
    17     9    18 ar  
    18    10    11 ar  
    19    10    29 1   
    20    11    20 ar  
    21    11    30 1   
    22    12    13 1   
    23    12    18 ar  
    24    13    14 1   
    25    14    15 1   
    26    14    31 1   
    27    14    32 1   
    28    15    16 1   
    29    15    33 1   
    30    15    34 1   
    31    16    17 3   
    32    18    19 ar  
    33    19    20 ar  
    34    19    35 1   
    35    20    21 1   
    36    21    22 1   
    37    22    36 1   
    38    22    37 1   
    39    22    38 1   
@<TRIPOS>SUBSTRUCTURE
     1 U53         1 TEMP              0 ****  ****    0 ROOT
