@<TRIPOS>MOLECULE
molecule
   38    39     1     0     0
SMALL
bcc


@<TRIPOS>ATOM
      1 O2           0.0000     0.0000     0.0000 o          1 U53      -0.519000
      2 C12          1.2160     0.0000     0.0000 c          1 U53       0.637700
      3 O1           1.8890     0.0000     1.1680 os         1 U53      -0.432900
      4 C13          1.0980     0.0010     2.3860 c3         1 U53       0.148400
      5 C14          2.0280     0.0000     3.6000 c3         1 U53      -0.096100
      6 C10          1.9520    -0.0070    -1.2720 ca         1 U53      -0.204900
      7 C11          3.3560    -0.0080    -1.2800 ca         1 U53       0.446200
      8 N1           4.0360    -0.0140    -2.3970 nb         1 U53      -0.664000
      9 C4           3.4350    -0.0200    -3.5980 ca         1 U53       0.397600
     10 C3           4.1950    -0.0270    -4.7770 ca         1 U53      -0.129300
     11 C2           3.5740    -0.0340    -5.9890 ca         1 U53      -0.188000
     12 C6           1.2580    -0.0190    -2.4930 ca         1 U53       0.093900
     13 S           -0.5040    -0.0250    -2.5410 ss         1 U53      -0.227000
     14 C7          -0.8230     1.7560    -2.5630 c3         1 U53      -0.000300
     15 C8          -2.3330     2.0030    -2.6050 c3         1 U53      -0.003300
     16 C9          -2.5930     3.4520    -2.6230 c1         1 U53       0.213700
     17 N           -2.7880     4.5700    -2.6560 n1         1 U53      -0.369800
     18 C5           2.0230    -0.0200    -3.6860 ca         1 U53      -0.104300
     19 C15          1.4050    -0.0330    -4.9430 ca         1 U53      -0.156000
     20 C1           2.1810    -0.0340    -6.0810 ca         1 U53       0.145100
     21 O            1.5860    -0.0460    -7.3030 os         1 U53      -0.322900
     22 C            2.4470    -0.0460    -8.4450 c3         1 U53       0.126700
     23 H1           0.5400     0.9280     2.4540 h1         1 U53       0.050700
     24 H2           0.4080    -0.8350     2.3690 h1         1 U53       0.050700
     25 H3           2.7160    -0.8330     3.5270 hc         1 U53       0.048700
     26 H4           2.5870     0.9280     3.6270 hc         1 U53       0.048700
     27 H5           1.4410    -0.0950     4.5050 hc         1 U53       0.048700
     28 H6           3.9020     0.0160    -0.3450 h4         1 U53       0.045100
     29 H7           5.2770    -0.0270    -4.7240 ha         1 U53       0.155000
     30 H8           4.1620    -0.0390    -6.8980 ha         1 U53       0.143000
     31 H9          -0.4160     2.2070    -1.6660 h1         1 U53       0.072700
     32 H10         -0.3530     2.1960    -3.4340 h1         1 U53       0.072700
     33 H11         -2.8230     1.3660    -1.8790 hc         1 U53       0.085200
     34 H12         -2.7080     1.7760    -3.5960 hc         1 U53       0.085200
     35 H13          0.3240    -0.0330    -5.0140 ha         1 U53       0.170000
     36 H14          2.9990    -0.9780    -8.4800 h1         1 U53       0.044700
     37 H15          1.8530     0.0560    -9.3450 h1         1 U53       0.044700
     38 H16          3.1410     0.7820    -8.3740 h1         1 U53       0.044700
@<TRIPOS>BOND
     1     1     2 2
     2    13    14 1
     3    13    12 1
     4     4     5 1
     5     4     3 1
     6    14    15 1
     7     2     3 1
     8     2     6 1
     9    22    21 1
    10    12     6 ar
    11    12    18 ar
    12    17    16 3
    13     6     7 ar
    14    19    18 ar
    15    19    20 ar
    16    16    15 1
    17    18     9 ar
    18    21    20 1
    19    20    11 ar
    20     7     8 ar
    21     9     8 ar
    22     9    10 ar
    23    11    10 ar
    24     4    23 1
    25     4    24 1
    26     5    25 1
    27     5    26 1
    28     5    27 1
    29     7    28 1
    30    10    29 1
    31    11    30 1
    32    14    31 1
    33    14    32 1
    34    15    33 1
    35    15    34 1
    36    19    35 1
    37    22    36 1
    38    22    37 1
    39    22    38 1
@<TRIPOS>SUBSTRUCTURE
     1 U53         1 TEMP              0 ****  ****    0 ROOT
