@<TRIPOS>MOLECULE
molecule
   30    31     1     0     0
SMALL
bcc


@<TRIPOS>ATOM
      1 N17          0.0000     0.0000     0.0000 nv         1 U55      -1.080500
      2 C11          1.3860     0.0000     0.0000 ca         1 U55       0.761200
      3 N12          2.0600     0.0000     1.1480 nb         1 U55      -0.766000
      4 C13          3.3780    -0.0050     1.1580 ca         1 U55       0.731900
      5 N14          4.0840     0.0010     0.0460 nb         1 U55      -0.816000
      6 C16          2.0940     0.0060    -1.1980 ca         1 U55      -0.424600
      7 C15          3.4840     0.0070    -1.1420 ca         1 U55       0.695200
      8 N18          4.2350     0.0130    -2.3090 nu         1 U55      -0.766300
      9 C01          5.6260    -0.1130    -2.2450 ca         1 U55       0.272600
     10 C06          6.2070    -0.9290    -1.2860 ca         1 U55      -0.161000
     11 C05          7.5800    -1.0510    -1.2260 ca         1 U55      -0.007500
     12 C02          6.4280     0.5730    -3.1480 ca         1 U55      -0.161000
     13 C03          7.8010     0.4520    -3.0780 ca         1 U55      -0.007500
     14 C04          8.3780    -0.3620    -2.1200 ca         1 U55      -0.377500
     15 S07         10.1310    -0.5200    -2.0400 sy         1 U55       1.229200
     16 O08         10.6520     0.6440    -2.6670 o          1 U55      -0.524800
     17 O09         10.4200    -0.9390    -0.7140 o          1 U55      -0.524800
     18 N10         10.5590    -1.7860    -3.0160 nz         1 U55      -0.806500
     19 H171        -0.5000    -0.8670     0.0080 hn         1 U55       0.451800
     20 H172        -0.5000     0.8670     0.0170 hn         1 U55       0.451800
     21 H131         3.8960    -0.0070     2.1100 h5         1 U55       0.070100
     22 H161         1.5760     0.0110    -2.1490 ha         1 U55       0.156000
     23 H181         3.7780     0.0810    -3.1970 hn         1 U55       0.473800
     24 H061         5.5830    -1.4700    -0.5840 ha         1 U55       0.174500
     25 H051         8.0340    -1.6880    -0.4760 ha         1 U55       0.155000
     26 H021         5.9770     1.2110    -3.8990 ha         1 U55       0.174500
     27 H031         8.4280     0.9890    -3.7800 ha         1 U55       0.155000
     28 H101        11.5520    -1.9030    -2.9940 hn         1 U55       0.490133
     29 H102        10.1170    -2.6230    -2.6900 hn         1 U55       0.490133
     30 H103        10.2660    -1.5980    -3.9550 hn         1 U55       0.490133
@<TRIPOS>BOND
     1     1     2 1
     2     1    19 1
     3     1    20 1
     4     2     3 ar
     5     2     6 ar
     6     3     4 ar
     7     4     5 ar
     8     4    21 1
     9     5     7 ar
    10     6     7 ar
    11     6    22 1
    12     7     8 1
    13     8     9 1
    14     8    23 1
    15     9    10 ar
    16     9    12 ar
    17    10    11 ar
    18    10    24 1
    19    11    14 ar
    20    11    25 1
    21    12    13 ar
    22    12    26 1
    23    13    14 ar
    24    13    27 1
    25    14    15 1
    26    15    16 2
    27    15    17 2
    28    15    18 1
    29    18    28 1
    30    18    29 1
    31    30    18 1
@<TRIPOS>SUBSTRUCTURE
     1 U55         1 TEMP              0 ****  ****    0 ROOT
