@<TRIPOS>MOLECULE
molecule
   32    33     1     0     0
SMALL
bcc


@<TRIPOS>ATOM
      1 N1           0.0000     0.0000     0.0000 n          1 U5P      -0.352000
      2 C2           1.3450     0.0000     0.0000 c          1 U5P       0.794500
      3 N3           2.0370     0.0000     1.1540 ns         1 U5P      -0.564500
      4 C4           1.3870    -0.0090     2.3360 c          1 U5P       0.714700
      5 C5          -0.0290    -0.0140     2.3500 cc         1 U5P      -0.372200
      6 C6          -0.6970    -0.0090     1.1770 cd         1 U5P       0.069600
      7 O2           1.9440     0.0080    -1.0580 o          1 U5P      -0.586500
      8 O4           2.0120    -0.0130     3.3810 o          1 U5P      -0.665500
      9 C1'         -0.7260     0.0040    -1.2720 c3         1 U5P       0.293500
     10 C2'         -0.4660     1.3220    -2.0350 c3         1 U5P       0.073100
     11 O2'         -1.5400     2.2420    -1.8320 oh         1 U5P      -0.593800
     12 C3'         -0.3960     0.8910    -3.5170 c3         1 U5P       0.100100
     13 C4'         -0.6210    -0.6370    -3.4780 c3         1 U5P       0.129100
     14 O3'         -1.4270     1.5290    -4.2740 oh         1 U5P      -0.588800
     15 O4'         -0.2230    -1.0310    -2.1450 os         1 U5P      -0.347600
     16 C5'          0.2500    -1.3370    -4.5230 c3         1 U5P       0.166400
     17 O5'         -0.0090    -2.7430    -4.4940 os         1 U5P      -0.527200
     18 P            0.9370    -3.4130    -5.6120 p5         1 U5P       1.147900
     19 O1P          0.6950    -2.7610    -6.9180 o          1 U5P      -0.907167
     20 O2P          2.4800    -3.2230    -5.1940 o          1 U5P      -0.907167
     21 O3P          0.6020    -4.9840    -5.7260 o          1 U5P      -0.907167
     22 HN3          3.0370     0.0020     1.1350 hn         1 U5P       0.357500
     23 H5          -0.5690    -0.0210     3.2890 ha         1 U5P       0.161000
     24 H6          -1.7800    -0.0110     1.1680 h4         1 U5P       0.158000
     25 H1'         -1.7880    -0.1290    -1.1070 h2         1 U5P       0.074700
     26 H2'          0.4770     1.7570    -1.7250 h1         1 U5P       0.054700
     27 HO2'        -1.1910     3.0850    -1.5940 ho         1 U5P       0.386000
     28 H3'          0.5800     1.1170    -3.9300 h1         1 U5P       0.068700
     29 H4'         -1.6680    -0.8650    -3.6390 h1         1 U5P       0.064700
     30 HO3'        -1.0380     2.0970    -4.9180 ho         1 U5P       0.392000
     31 H5'1         1.2950    -1.1580    -4.3010 h1         1 U5P       0.057200
     32 H5'2         0.0180    -0.9470    -5.5070 h1         1 U5P       0.057200
@<TRIPOS>BOND
     1     1     2 1
     2     1     6 1
     3     1     9 1
     4     2     3 1
     5     2     7 2
     6     3     4 1
     7     3    22 1
     8     4     5 1
     9     4     8 2
    10     5     6 2
    11     5    23 1
    12     6    24 1
    13     9    10 1
    14     9    15 1
    15     9    25 1
    16    10    11 1
    17    10    12 1
    18    10    26 1
    19    11    27 1
    20    12    13 1
    21    12    14 1
    22    12    28 1
    23    13    15 1
    24    13    16 1
    25    13    29 1
    26    14    30 1
    27    16    17 1
    28    16    31 1
    29    16    32 1
    30    17    18 1
    31    18    19 1
    32    18    20 1
    33    18    21 1
@<TRIPOS>SUBSTRUCTURE
     1 U5P         1 TEMP              0 ****  ****    0 ROOT
