@<TRIPOS>MOLECULE
molecule
   34    35     1     0     0
SMALL
bcc


@<TRIPOS>ATOM
      1 O2           0.0000     0.0000     0.0000 o          1 U5R      -0.579500
      2 C2           1.2160     0.0000     0.0000 c          1 U5R       0.791500
      3 N3           1.8790     0.0000     1.1710 ns         1 U5R      -0.566500
      4 C4           3.2270     0.0000     1.1890 c          1 U5R       0.713700
      5 O4           3.8280     0.0010     2.2480 o          1 U5R      -0.666500
      6 C5           3.9380     0.0020    -0.0360 cc         1 U5R      -0.373200
      7 C6           3.2480     0.0020    -1.1960 cd         1 U5R       0.067600
      8 N1           1.8800    -0.0040    -1.1700 n          1 U5R      -0.353000
      9 C1'          1.1300    -0.0040    -2.4300 c3         1 U5R       0.279500
     10 O4'          0.1530     1.0600    -2.4330 os         1 U5R      -0.403600
     11 C2'          0.3040    -1.3030    -2.5630 c3         1 U5R       0.069600
     12 F2'          0.9720    -2.2280    -3.3720 f          1 U5R      -0.258300
     13 C3'         -1.0090    -0.8440    -3.2360 c3         1 U5R       0.116100
     14 O3'         -1.1770    -1.4920    -4.4990 oh         1 U5R      -0.572800
     15 C4'         -0.8200     0.6790    -3.4310 c3         1 U5R       0.120100
     16 C5'         -2.1410     1.4140    -3.1940 c3         1 U5R       0.238100
     17 C5M         -1.9310     2.9170    -3.3910 c3         1 U5R      -0.098100
     18 O5'         -3.1200     0.9450    -4.1230 os         1 U5R      -0.556200
     19 P           -4.5000     0.2520    -3.6670 p5         1 U5R       1.172900
     20 OP1         -5.2230     1.1530    -2.7420 o          1 U5R      -0.902833
     21 OP2         -5.4130    -0.0310    -4.9640 o          1 U5R      -0.902833
     22 OP3         -4.1810    -1.1390    -2.9220 o          1 U5R      -0.902833
     23 H1           1.3690    -0.0000     2.0320 hn         1 U5R       0.356500
     24 H2           5.0210     0.0040    -0.0420 ha         1 U5R       0.160000
     25 H3           3.7740     0.0000    -2.1430 h4         1 U5R       0.157000
     26 H4           1.8000     0.1010    -3.2740 h2         1 U5R       0.065700
     27 H5           0.1000    -1.7220    -1.5850 h1         1 U5R       0.083700
     28 H6          -1.8540    -1.0400    -2.5870 h1         1 U5R       0.158700
     29 H7          -1.3720    -2.4040    -4.3610 ho         1 U5R       0.409000
     30 H8          -0.4400     0.8860    -4.4240 h1         1 U5R       0.053700
     31 H9          -2.4830     1.2270    -2.1830 h1         1 U5R       0.061700
     32 H10         -2.6970     3.3050    -4.0520 hc         1 U5R       0.020033
     33 H11         -1.9920     3.4190    -2.4330 hc         1 U5R       0.020033
     34 H12         -0.9550     3.0910    -3.8280 hc         1 U5R       0.020033
@<TRIPOS>BOND
     1    14    13 1
     2    17    16 1
     3    20    19 1
     4    13    11 1
     5    13    15 1
     6    18    19 1
     7    18    16 1
     8    19    21 1
     9    16    15 1
    10    11    12 1
    11    11     9 1
    12    15    10 1
    13     7     6 2
    14     7     8 1
    15    10     9 1
    16     6     4 1
    17     9     8 1
    18     8     2 1
    19     4     5 2
    20     4     3 1
    21     2     3 1
    22     2     1 2
    23    19    22 1
    24     3    23 1
    25     6    24 1
    26     7    25 1
    27     9    26 1
    28    11    27 1
    29    13    28 1
    30    14    29 1
    31    15    30 1
    32    16    31 1
    33    17    32 1
    34    17    33 1
    35    17    34 1
@<TRIPOS>SUBSTRUCTURE
     1 U5R         1 TEMP              0 ****  ****    0 ROOT
