@<TRIPOS>MOLECULE
U63
   44    45     1     0     0
SMALL
bcc


@<TRIPOS>ATOM
      1 C6          0.0680    0.2820   -0.2660 c3        1 U63      0.142400
      2 O5          1.9210    0.1440    1.1790 os        1 U63     -0.462600
      3 C1          1.5920    0.1270   -0.2120 c3        1 U63      0.110100
      4 O4'         3.3310   -0.0890    2.8520 os        1 U63     -0.420600
      5 C2          2.0440   -1.1960   -0.8500 c3        1 U63      0.122100
      6 O5'         4.0030    2.5910    5.2310 os        1 U63     -0.461600
      7 C3          3.5510   -1.4080   -0.6120 c3        1 U63      0.108100
      8 O3'         0.6550    0.8620    3.5540 oh        1 U63     -0.591800
      9 C4          3.8600   -1.3260    0.8910 c3        1 U63      0.088100
     10 F1          0.5670    1.8310    6.2420 f         1 U63     -0.215300
     11 C5          3.3090    0.0030    1.4420 c3        1 U63      0.306900
     12 O1'         2.7600    3.7290    6.6410 oh        1 U63     -0.580800
     13 C4'         3.0620    1.1430    3.5340 c3        1 U63      0.085100
     14 O6'         6.6680    1.8290    4.3950 oh        1 U63     -0.590800
     15 C5'         4.2710    1.4430    4.4290 c3        1 U63      0.096100
     16 O4          5.2690   -1.3610    1.0190 oh        1 U63     -0.599800
     17 C1'         2.8850    2.4420    6.0980 c3        1 U63      0.315900
     18 O3          3.8570   -2.6940   -1.1180 oh        1 U63     -0.602800
     19 C2'         1.5690    2.1240    5.3360 c3        1 U63      0.161600
     20 O2          1.7760   -1.0970   -2.2360 oh        1 U63     -0.591800
     21 C3'         1.7990    0.9260    4.3850 c3        1 U63      0.108100
     22 O6         -0.3380    1.4980    0.3180 oh        1 U63     -0.593800
     23 C6'         5.5080    1.7930    3.5950 c3        1 U63      0.136400
     24 H1         -0.4220   -0.5870    0.2460 h1        1 U63      0.063700
     25 H2         -0.2540    0.3350   -1.3410 h1        1 U63      0.063700
     26 H3          2.0920    0.9940   -0.7240 h1        1 U63      0.072700
     27 H4          1.4730   -2.0600   -0.4090 h1        1 U63      0.064700
     28 H5          4.1460   -0.6300   -1.1670 h1        1 U63      0.066700
     29 H6          0.7730    0.0900    2.9810 ho        1 U63      0.427000
     30 H7          3.3920   -2.1910    1.4360 h1        1 U63      0.079700
     31 H8          3.8860    0.8880    1.0580 h2        1 U63      0.061700
     32 H9          3.6500    4.0530    6.8410 ho        1 U63      0.428000
     33 H10         2.8860    1.9840    2.8100 h1        1 U63      0.085700
     34 H11         6.5390    2.5280    5.0490 ho        1 U63      0.412000
     35 H12         4.4900    0.5620    5.0950 h1        1 U63      0.070700
     36 H13         5.4620   -1.3720    1.9660 ho        1 U63      0.424000
     37 H14         3.0970    1.6690    6.8880 h2        1 U63      0.054700
     38 H15         4.7940   -2.8480   -0.9340 ho        1 U63      0.428000
     39 H16         1.2610    3.0270    4.7360 h1        1 U63      0.097700
     40 H17         2.1300   -1.9020   -2.6400 ho        1 U63      0.427000
     41 H18         1.8990   -0.0240    4.9780 h1        1 U63      0.063700
     42 H19        -0.0880    1.4680    1.2530 ho        1 U63      0.419000
     43 H20         5.6880    0.9760    2.8450 h1        1 U63      0.059200
     44 H21         5.3550    2.7750    3.0740 h1        1 U63      0.059200
@<TRIPOS>BOND
     1    1    3 1   
     2    1   22 1   
     3    1   24 1   
     4    1   25 1   
     5    2    3 1   
     6    2   11 1   
     7    3    5 1   
     8    3   26 1   
     9    4   11 1   
    10    4   13 1   
    11    5    7 1   
    12    5   20 1   
    13    5   27 1   
    14    6   15 1   
    15    6   17 1   
    16    7    9 1   
    17    7   18 1   
    18    7   28 1   
    19    8   21 1   
    20    8   29 1   
    21    9   11 1   
    22    9   16 1   
    23    9   30 1   
    24   10   19 1   
    25   11   31 1   
    26   12   17 1   
    27   12   32 1   
    28   13   15 1   
    29   13   21 1   
    30   13   33 1   
    31   14   23 1   
    32   14   34 1   
    33   15   23 1   
    34   15   35 1   
    35   16   36 1   
    36   17   19 1   
    37   17   37 1   
    38   18   38 1   
    39   19   21 1   
    40   19   39 1   
    41   20   40 1   
    42   21   41 1   
    43   22   42 1   
    44   23   43 1   
    45   23   44 1   
@<TRIPOS>SUBSTRUCTURE
     1 U63         1 TEMP              0 ****  ****    0 ROOT
