@<TRIPOS>MOLECULE
molecule
   44    45     1     0     0
SMALL
bcc


@<TRIPOS>ATOM
      1 C6           0.0000     0.0000     0.0000 c3         1 U63       0.155400
      2 O5           2.0070     0.0000     1.3470 os         1 U63      -0.388600
      3 C1           1.5300     0.0000     0.0000 c3         1 U63       0.146100
      4 O4'          3.7980     0.0490     2.8430 os         1 U63      -0.395600
      5 C2           2.0410    -1.2510    -0.7220 c3         1 U63       0.100100
      6 O5'          3.9440     2.6820     5.3860 os         1 U63      -0.420600
      7 C3           3.5710    -1.2740    -0.6650 c3         1 U63       0.116100
      8 O3'          1.0560     0.8320     3.0630 oh         1 U63      -0.548800
      9 C4           4.0180    -1.2240     0.7990 c3         1 U63       0.115100
     10 F1           0.3600     2.0810     5.5220 f          1 U63      -0.237300
     11 C5           3.4320     0.0250     1.4610 c3         1 U63       0.337900
     12 O1'          2.3360     3.7300     6.7140 oh         1 U63      -0.571800
     13 C4'          3.3950     1.2360     3.5300 c3         1 U63       0.124100
     14 O6'          6.7130     1.9500     5.1390 oh         1 U63      -0.603800
     15 C5'          4.3810     1.5300     4.6630 c3         1 U63       0.159100
     16 O4           5.4450    -1.1730     0.8620 oh         1 U63      -0.597800
     17 C1'          2.6620     2.5360     6.0000 c3         1 U63       0.324900
     18 O3           4.0530    -2.4750    -1.2710 oh         1 U63      -0.603800
     19 C2'          1.6070     2.2820     4.9200 c3         1 U63       0.112600
     20 O2           1.6120    -1.2240    -2.0840 oh         1 U63      -0.602800
     21 C3'          1.9960     1.0350     4.1210 c3         1 U63       0.095100
     22 O6          -0.4760     1.2210     0.5700 oh         1 U63      -0.590800
     23 C6'          5.7700     1.7910     4.0770 c3         1 U63       0.150400
     24 H1          -0.3610    -0.0890    -1.0170 h1         1 U63       0.036200
     25 H2          -0.3610    -0.8370     0.5850 h1         1 U63       0.036200
     26 H3           1.8950     0.8830    -0.5100 h1         1 U63       0.059700
     27 H4           1.6490    -2.1340    -0.2310 h1         1 U63       0.057700
     28 H5           3.9640    -0.4130    -1.1920 h1         1 U63       0.060700
     29 H6           0.2300     0.5540     3.4250 ho         1 U63       0.407000
     30 H7           3.6600    -2.1070     1.3160 h1         1 U63       0.066700
     31 H8           3.8170     0.9080     0.9650 h2         1 U63       0.041700
     32 H9           2.6310     3.6530     7.6070 ho         1 U63       0.416000
     33 H10          3.3790     2.0710     2.8410 h1         1 U63       0.069700
     34 H11          7.5690     2.1080     4.7770 ho         1 U63       0.405000
     35 H12          4.4210     0.6800     5.3330 h1         1 U63       0.060700
     36 H13          5.7730    -1.9790     1.2240 ho         1 U63       0.416000
     37 H14          2.6850     1.6960     6.6840 h2         1 U63       0.033700
     38 H15          4.6000    -2.2570    -2.0080 ho         1 U63       0.416000
     39 H16          1.5600     3.1360     4.2550 h1         1 U63       0.093700
     40 H17          1.3100    -2.0810    -2.3350 ho         1 U63       0.413000
     41 H18          2.0010     0.1730     4.7770 h1         1 U63       0.049700
     42 H19         -1.3290     1.4190     0.2210 ho         1 U63       0.398000
     43 H20          6.0630     0.9530     3.4570 h1         1 U63       0.042200
     44 H21          5.7450     2.6930     3.4780 h1         1 U63       0.042200
@<TRIPOS>BOND
     1    18     7 1
     2    16     9 1
     3     7     9 1
     4     7     5 1
     5     9    11 1
     6    20     5 1
     7     5     3 1
     8    23    14 1
     9    23    15 1
    10    11     4 1
    11    11     2 1
    12     3     2 1
    13     3     1 1
    14     4    13 1
    15    15    13 1
    16    15     6 1
    17    13    21 1
    18     1    22 1
    19     6    17 1
    20    21     8 1
    21    21    19 1
    22    17    19 1
    23    17    12 1
    24    19    10 1
    25     1    24 1
    26     1    25 1
    27     3    26 1
    28     5    27 1
    29     7    28 1
    30     8    29 1
    31     9    30 1
    32    11    31 1
    33    12    32 1
    34    13    33 1
    35    14    34 1
    36    15    35 1
    37    16    36 1
    38    17    37 1
    39    18    38 1
    40    19    39 1
    41    20    40 1
    42    21    41 1
    43    22    42 1
    44    23    43 1
    45    23    44 1
@<TRIPOS>SUBSTRUCTURE
     1 U63         1 TEMP              0 ****  ****    0 ROOT
