@<TRIPOS>MOLECULE
U66
   62    67     1     0     0
SMALL
bcc


@<TRIPOS>ATOM
      1 C          -0.0900   -0.0130    0.2140 ca        1 U66      0.017000
      2 C1          1.3450    0.0820    0.1470 ca        1 U66      0.011600
      3 C2         -0.6750   -0.5060    1.4100 ca        1 U66     -0.053000
      4 C3         -0.9410    0.3560   -0.8630 ca        1 U66     -0.199000
      5 N           1.9620    0.5650   -1.0390 n         1 U66     -0.358000
      6 C4          2.1200   -0.2960    1.2370 ca        1 U66     -0.102000
      7 C5         -2.0920   -0.6330    1.4980 ca        1 U66     -0.078000
      8 C6          0.1470   -0.8720    2.5070 ca        1 U66     -0.076000
      9 C7         -2.3090    0.2390   -0.7360 ca        1 U66      0.138100
     10 C8          2.0250   -0.1420   -2.2220 c         1 U66      0.680500
     11 C9          2.8980    1.6780   -1.0010 c3        1 U66      0.082000
     12 C10         1.5140   -0.7640    2.4210 ca        1 U66     -0.132000
     13 C11        -2.9030   -0.2710    0.4570 ca        1 U66     -0.129000
     14 O          -3.2080    0.5330   -1.7460 os        1 U66     -0.328900
     15 C12         2.9360    0.6380   -3.2280 c3        1 U66      0.013500
     16 O13         1.4640   -1.1950   -2.5380 o         1 U66     -0.559500
     17 C14         3.5870    1.7460   -2.3810 c3        1 U66     -0.120400
     18 C15        -2.8500    1.6310   -2.6080 c3        1 U66      0.150100
     19 N16         2.1540    1.1630   -4.3890 n4        1 U66     -0.748000
     20 C17        -4.1420    2.4580   -2.7540 c3        1 U66     -0.001600
     21 C18        -2.2840    1.0730   -3.9170 c3        1 U66     -0.047200
     22 C19         1.2110    0.1580   -4.9740 c3        1 U66      0.089800
     23 C20        -5.1140    1.8090   -3.7330 c3        1 U66     -0.052200
     24 C21        -3.8050    3.8130   -3.1520 c1        1 U66      0.200700
     25 C22        -3.1540    1.2230   -5.1120 c2        1 U66     -0.171400
     26 C23         0.6420    0.5990   -6.3260 c3        1 U66     -0.005100
     27 C24        -4.4600    1.5170   -5.0280 c2        1 U66     -0.109200
     28 N25        -3.5360    4.9000   -3.4640 n1        1 U66     -0.350800
     29 C26        -2.4950    1.0800   -6.4560 c3        1 U66      0.078500
     30 C27        -0.4030   -0.3660   -6.7090 cc        1 U66     -0.286900
     31 N28        -1.7950   -0.1520   -6.6890 na        1 U66     -0.190900
     32 C29        -0.2220   -1.7000   -7.1450 cd        1 U66      0.343200
     33 C30        -2.3800   -1.3510   -7.1170 cc        1 U66      0.434400
     34 NZ         -1.4500   -2.2960   -7.3890 nd        1 U66     -0.647000
     35 H31        -0.5100    0.7140   -1.8080 ha        1 U66      0.115000
     36 H41         3.2200   -0.2400    1.2020 ha        1 U66      0.140000
     37 H51        -2.5250   -1.0300    2.4300 ha        1 U66      0.154000
     38 H61        -0.3300   -1.2480    3.4270 ha        1 U66      0.153000
     39 H91         2.3330    2.6260   -0.7830 h1        1 U66      0.082700
     40 H92         3.6620    1.5300   -0.1870 h1        1 U66      0.082700
     41 H101        2.1560   -1.0490    3.2680 ha        1 U66      0.155000
     42 H111       -3.9980   -0.3680    0.5060 ha        1 U66      0.164000
     43 H121        3.7030   -0.0850   -3.6320 hx        1 U66      0.137700
     44 H141        4.6820    1.5360   -2.2770 hc        1 U66      0.090700
     45 H142        3.4800    2.7690   -2.8180 hc        1 U66      0.090700
     46 H151       -2.0710    2.2730   -2.1090 h1        1 U66      0.059700
     47 H161        2.8160    1.4670   -5.1130 hn        1 U66      0.446300
     48 H117       -4.6390    2.5040   -1.7380 hc        1 U66      0.108700
     49 H181       -2.0750   -0.0250   -3.7670 hc        1 U66      0.050200
     50 H182       -1.3000    1.5790   -4.1180 hc        1 U66      0.050200
     51 H191        1.7570   -0.8240   -5.0800 hx        1 U66      0.129700
     52 H192        0.3680   -0.0000   -4.2350 hx        1 U66      0.129700
     53 H201       -6.0000    2.4800   -3.8850 hc        1 U66      0.085700
     54 H202       -5.4840    0.8480   -3.2780 hc        1 U66      0.085700
     55 H231        1.4500    0.5890   -7.1080 hc        1 U66      0.069200
     56 H232        0.2390    1.6450   -6.2630 hc        1 U66      0.069200
     57 H241       -5.1040    1.5710   -5.9210 ha        1 U66      0.144000
     58 H261       -3.2810    1.1810   -7.2650 h1        1 U66      0.070700
     59 H262       -1.7700    1.9370   -6.5820 h1        1 U66      0.070700
     60 H291        0.7130   -2.2400   -7.2960 h4        1 U66      0.047100
     61 H301       -3.4660   -1.4800   -7.2070 h5        1 U66      0.079100
     62 H162        1.6160    1.9850   -4.0900 hn        1 U66      0.446300
@<TRIPOS>BOND
     1    1    2 ar  
     2    1    3 ar  
     3    1    4 ar  
     4    2    5 1   
     5    2    6 ar  
     6    3    7 ar  
     7    3    8 ar  
     8    4    9 ar  
     9    4   35 1   
    10    5   10 1   
    11    5   11 1   
    12    6   12 ar  
    13    6   36 1   
    14    7   13 ar  
    15    7   37 1   
    16    8   12 ar  
    17    8   38 1   
    18    9   13 ar  
    19    9   14 1   
    20   10   15 1   
    21   10   16 2   
    22   11   17 1   
    23   11   39 1   
    24   11   40 1   
    25   12   41 1   
    26   13   42 1   
    27   14   18 1   
    28   15   17 1   
    29   15   19 1   
    30   15   43 1   
    31   17   44 1   
    32   17   45 1   
    33   18   20 1   
    34   18   21 1   
    35   18   46 1   
    36   19   22 1   
    37   19   47 1   
    38   19   62 1   
    39   20   23 1   
    40   20   24 1   
    41   20   48 1   
    42   21   25 1   
    43   21   49 1   
    44   21   50 1   
    45   22   26 1   
    46   22   51 1   
    47   22   52 1   
    48   23   27 1   
    49   23   53 1   
    50   23   54 1   
    51   24   28 3   
    52   25   27 2   
    53   25   29 1   
    54   26   30 1   
    55   26   55 1   
    56   26   56 1   
    57   27   57 1   
    58   29   31 1   
    59   29   58 1   
    60   29   59 1   
    61   30   31 1   
    62   30   32 2   
    63   31   33 1   
    64   32   34 1   
    65   32   60 1   
    66   33   34 2   
    67   33   61 1   
@<TRIPOS>SUBSTRUCTURE
     1 U66         1 TEMP              0 ****  ****    0 ROOT
