@<TRIPOS>MOLECULE
U6B
   53    55     1     0     0
SMALL
bcc


@<TRIPOS>ATOM
      1 C9           0.0000     0.0000     0.0000 c2         1 U6B       0.363200
      2 C23          9.7230    -0.3600    -2.3480 ca         1 U6B      -0.065000
      3 C25          9.9230    -1.5030    -0.2250 ca         1 U6B      -0.065000
      4 C22          8.3510    -0.4160    -2.2470 ca         1 U6B      -0.095000
      5 C26          8.5510    -1.5590    -0.1270 ca         1 U6B      -0.095000
      6 C2           5.6810    -1.6750     0.0780 ca         1 U6B      -0.096000
      7 C4           5.4820    -0.5340    -2.0380 ca         1 U6B      -0.096000
      8 C1           4.3050    -1.7270     0.1720 ca         1 U6B      -0.101000
      9 C5           4.1070    -0.5920    -1.9330 ca         1 U6B      -0.101000
     10 C24         10.5200    -0.9040    -1.3380 ca         1 U6B       0.056000
     11 C21          7.7570    -1.0150    -1.1370 cp         1 U6B      -0.043000
     12 C3           6.2790    -1.0760    -1.0300 cp         1 U6B      -0.008000
     13 C6           3.5200    -1.1880    -0.8310 ca         1 U6B      -0.117300
     14 C12          2.1250     1.1630     2.0510 c          1 U6B       0.553100
     15 C15          1.4750     0.8260     4.4220 c3         1 U6B      -0.063900
     16 C19          3.1760     2.5490     3.8210 c3         1 U6B      -0.063900
     17 C16          0.4050     1.9150     4.3210 c3         1 U6B       0.199900
     18 C18          2.0400     3.5730     3.7430 c3         1 U6B       0.199900
     19 C14          2.6280     1.1620     3.4710 c3         1 U6B      -0.167800
     20 C7           2.0170    -1.2490    -0.7220 c3         1 U6B       0.061900
     21 C8           1.5080     0.0000     0.0000 c3         1 U6B      -0.103600
     22 N28         13.0810    -0.8030    -1.5020 n1         1 U6B      -0.339800
     23 N10         -0.6390    -0.0010     1.1080 n2         1 U6B      -0.589100
     24 N20          3.6920     0.1610     3.6150 nz         1 U6B       0.062400
     25 N11          1.9960     0.0000     1.3810 ns         1 U6B      -0.229900
     26 O13          1.8360     2.2090     1.5090 o          1 U6B      -0.531100
     27 O17          0.9870     3.1840     4.6280 os         1 U6B      -0.366600
     28 H9          -0.5420    -0.9040     0.2500 h4         1 U6B       0.098800
     29 H8           1.8690     0.8850    -0.5100 h1         1 U6B       0.097700
     30 H10         -0.1390    -0.0030     1.9750 hn         1 U6B       0.255400
     31 H23         10.1840     0.1020    -3.2130 ha         1 U6B       0.121000
     32 H22          7.7330     0.0050    -3.0300 ha         1 U6B       0.112000
     33 H25         10.5390    -1.9190     0.5640 ha         1 U6B       0.121000
     34 H26          8.0880    -1.9980     0.7480 ha         1 U6B       0.112000
     35 H2           6.2950    -2.0980     0.8640 ha         1 U6B       0.120000
     36 H1           3.8390    -2.1930     1.0320 ha         1 U6B       0.100500
     37 H4           5.9400    -0.0670    -2.9020 ha         1 U6B       0.120000
     38 H5           3.4860    -0.1720    -2.7140 ha         1 U6B       0.100500
     39 H71C         1.6240    -1.8880    -1.5040 hc         1 U6B       0.027200
     40 H72C         1.7410    -1.6500     0.2450 hc         1 U6B       0.027200
     41 H11          2.0920    -0.8700     1.8660 hn         1 U6B       0.167500
     42 H151         1.7730     0.7220     5.4580 hc         1 U6B       0.042200
     43 H152         1.0550    -0.1110     4.0760 hc         1 U6B       0.042200
     44 H161        -0.3510     1.7350     5.0760 h1         1 U6B       0.049450
     45 H162        -0.0530     1.8670     3.3400 h1         1 U6B       0.049450
     46 H191         3.9140     2.7880     3.0650 hc         1 U6B       0.042200
     47 H192         3.6350     2.6100     4.8010 hc         1 U6B       0.042200
     48 H181         2.4030     4.5280     4.1020 h1         1 U6B       0.049450
     49 H182         1.7300     3.6740     2.7100 h1         1 U6B       0.049450
     50 H201         4.3660     0.2830     2.8860 hn         1 U6B       0.229800
     51 H202         4.1380     0.2740     4.5040 hn         1 U6B       0.229800
     52 H203         3.2970    -0.7560     3.5550 hn         1 U6B       0.229800
     53 C27         11.9470    -0.8460    -1.4400 cg         1 U6B       0.204800
@<TRIPOS>BOND
     1     1    21 1   
     2     1    23 2   
     3     1    28 1   
     4     2     4 ar  
     5     2    10 ar  
     6     2    31 1   
     7     3     5 ar  
     8     3    10 ar  
     9     3    33 1   
    10     4    11 ar  
    11     4    32 1   
    12     5    11 ar  
    13     5    34 1   
    14     6     8 ar  
    15     6    12 ar  
    16     6    35 1   
    17     7     9 ar  
    18     7    12 ar  
    19     7    37 1   
    20     8    13 ar  
    21     8    36 1   
    22     9    13 ar  
    23     9    38 1   
    24    10    53 1   
    25    11    12 1   
    26    13    20 1   
    27    14    19 1   
    28    14    25 1   
    29    14    26 2   
    30    15    17 1   
    31    15    19 1   
    32    15    42 1   
    33    15    43 1   
    34    16    18 1   
    35    16    19 1   
    36    16    46 1   
    37    16    47 1   
    38    17    27 1   
    39    17    44 1   
    40    17    45 1   
    41    18    27 1   
    42    18    48 1   
    43    18    49 1   
    44    19    24 1   
    45    20    21 1   
    46    20    39 1   
    47    20    40 1   
    48    21    25 1   
    49    21    29 1   
    50    22    53 3   
    51    23    30 1   
    52    24    50 1   
    53    24    51 1   
    54    24    52 1   
    55    25    41 1   
@<TRIPOS>SUBSTRUCTURE
     1 U6B         1 TEMP              0 ****  ****    0 ROOT
