@<TRIPOS>MOLECULE
molecule
   53    55     1     0     0
SMALL
bcc


@<TRIPOS>ATOM
      1 C9           0.0000     0.0000     0.0000 c2         1 U6B       0.308200
      2 C23          9.7230    -0.3600    -2.3480 ca         1 U6B      -0.091500
      3 C25          9.9230    -1.5030    -0.2250 ca         1 U6B      -0.091500
      4 C22          8.3510    -0.4160    -2.2470 ca         1 U6B      -0.119500
      5 C26          8.5510    -1.5590    -0.1270 ca         1 U6B      -0.119500
      6 C2           5.6810    -1.6750     0.0780 ca         1 U6B      -0.121000
      7 C4           5.4820    -0.5340    -2.0380 ca         1 U6B      -0.121000
      8 C1           4.3050    -1.7270     0.1720 ca         1 U6B      -0.131000
      9 C5           4.1070    -0.5920    -1.9330 ca         1 U6B      -0.131000
     10 C24         10.5200    -0.9040    -1.3380 ca         1 U6B      -0.009000
     11 C21          7.7570    -1.0150    -1.1370 cp         1 U6B      -0.023000
     12 C3           6.2790    -1.0760    -1.0300 cp         1 U6B      -0.019000
     13 C6           3.5200    -1.1880    -0.8310 ca         1 U6B      -0.070300
     14 C12          2.1250     1.1630     2.0510 c          1 U6B       0.634100
     15 C15          1.4750     0.8260     4.4220 c3         1 U6B      -0.202400
     16 C19          3.1760     2.5490     3.8210 c3         1 U6B      -0.202400
     17 C16          0.4050     1.9150     4.3210 c3         1 U6B       0.113400
     18 C18          2.0400     3.5730     3.7430 c3         1 U6B       0.113400
     19 C14          2.6280     1.1620     3.4710 c3         1 U6B       0.101200
     20 C7           2.0170    -1.2490    -0.7220 c3         1 U6B      -0.088100
     21 C8           1.5080     0.0000     0.0000 c3         1 U6B       0.028400
     22 N28         13.0790    -0.7820    -1.5150 n1         1 U6B      -0.327800
     23 N10         -0.6390    -0.0010     1.1080 n2         1 U6B      -0.823100
     24 N20          3.6920     0.1610     3.6150 nz         1 U6B      -0.834600
     25 N11          1.9960     0.0000     1.3810 ns         1 U6B      -0.592900
     26 O13          1.8360     2.2090     1.5090 o          1 U6B      -0.521100
     27 O17          0.9870     3.1840     4.6280 os         1 U6B      -0.430600
     28 H9          -0.7030    -0.4790     0.6710 h4         1 U6B       0.152800
     29 H8           1.8630     0.8900    -0.5060 h1         1 U6B       0.135700
     30 H10         -1.5290    -0.3210     0.7800 hn         1 U6B       0.441400
     31 H23         10.1400     0.3040    -3.0960 ha         1 U6B       0.152500
     32 H22          7.8100    -0.1420    -3.1450 ha         1 U6B       0.138500
     33 H25         10.6680    -1.6310     0.5520 ha         1 U6B       0.152500
     34 H26          8.2510    -1.7540     0.8950 ha         1 U6B       0.138500
     35 H2           6.0900    -2.0790     0.9960 ha         1 U6B       0.142000
     36 H1           3.8720    -1.8980     1.1500 ha         1 U6B       0.120500
     37 H4           6.0470    -0.1000    -2.8550 ha         1 U6B       0.142000
     38 H5           3.8310     0.2770    -2.5170 ha         1 U6B       0.120500
     39 H71C         1.8100    -2.2990    -0.5580 hc         1 U6B       0.113700
     40 H72C         1.4920    -0.6290    -1.4390 hc         1 U6B       0.113700
     41 H11          2.0640    -0.8510     1.9030 hn         1 U6B       0.295500
     42 H151         1.4540     0.5420     5.4670 hc         1 U6B       0.090200
     43 H152         1.1100    -0.1740     4.2210 hc         1 U6B       0.090200
     44 H161         0.2740     1.9760     3.2470 h1         1 U6B       0.101200
     45 H162        -0.4920     2.0410     4.9150 h1         1 U6B       0.101200
     46 H191         3.6340     2.9440     4.7200 hc         1 U6B       0.090200
     47 H192         3.9630     3.0700     3.2890 hc         1 U6B       0.090200
     48 H181         2.0580     4.4770     4.3390 h1         1 U6B       0.101200
     49 H182         1.6310     3.4930     2.7430 h1         1 U6B       0.101200
     50 H201         4.2100     0.6680     2.9250 hn         1 U6B       0.475133
     51 H202         4.0880     0.2650     4.5290 hn         1 U6B       0.475133
     52 H203         3.3360    -0.6840     3.2140 hn         1 U6B       0.475133
     53 C27         11.9470    -0.8460    -1.4400 cg         1 U6B       0.219800
@<TRIPOS>BOND
     1    53    10 1
     2    53    22 3
     3     1    21 1
     4     1    23 2
     5     1    28 1
     6     2     4 ar
     7     2    10 ar
     8     3     5 ar
     9     3    10 ar
    10     4    11 ar
    11     5    11 ar
    12     6     8 ar
    13     6    12 ar
    14     7     9 ar
    15     7    12 ar
    16     8    13 ar
    17     9    13 ar
    18    11    12 1
    19    13    20 1
    20    14    19 1
    21    14    25 1
    22    14    26 2
    23    15    17 1
    24    15    19 1
    25    16    18 1
    26    16    19 1
    27    17    27 1
    28    18    27 1
    29    19    24 1
    30    20    21 1
    31    21    25 1
    32    21    29 1
    33    23    30 1
    34     2    31 1
    35     4    32 1
    36     3    33 1
    37     5    34 1
    38     6    35 1
    39     8    36 1
    40     7    37 1
    41     9    38 1
    42    20    39 1
    43    20    40 1
    44    25    41 1
    45    15    42 1
    46    15    43 1
    47    17    44 1
    48    17    45 1
    49    16    46 1
    50    16    47 1
    51    18    48 1
    52    18    49 1
    53    24    50 1
    54    24    51 1
    55    52    24 1
@<TRIPOS>SUBSTRUCTURE
     1 U6B         1 TEMP              0 ****  ****    0 ROOT
