@<TRIPOS>MOLECULE
U6M
   35    36     1     0     0
SMALL
bcc


@<TRIPOS>ATOM
      1 O2          0.1460   -1.1210    0.2770 o         1 U6M     -0.627500
      2 C2          1.2720   -0.6270    0.0660 c         1 U6M      0.810500
      3 N3          2.0380   -0.3000    1.2140 n         1 U6M     -0.598500
      4 C4          3.2650    0.3660    1.1470 c         1 U6M      0.725700
      5 O4          3.8810    0.6170    2.2070 o         1 U6M     -0.696500
      6 C5          3.7200    0.7120   -0.1900 cc        1 U6M     -0.396200
      7 C6          2.9960    0.3560   -1.3010 cd        1 U6M      0.155400
      8 C7          3.4850    0.8150   -2.6400 c3        1 U6M     -0.082900
      9 N1          1.8470   -0.4270   -1.2140 n         1 U6M     -0.347000
     10 C1'         1.1660   -0.7970   -2.4840 c3        1 U6M      0.284500
     11 O4'         0.5690    0.3560   -3.0510 os        1 U6M     -0.426600
     12 C2'         0.1360   -1.9510   -2.4710 c3        1 U6M      0.031100
     13 O2'         0.6940   -3.0310   -3.1820 oh        1 U6M     -0.657800
     14 C3'        -1.1500   -1.3690   -3.2110 c3        1 U6M      0.362800
     15 O3'        -1.3200   -1.9460   -4.3820 o         1 U6M     -0.872500
     16 C4'        -0.8420    0.1660   -3.2820 c3        1 U6M      0.046100
     17 C5'        -1.6500    0.9810   -2.2700 c3        1 U6M      0.168400
     18 O5'        -1.4840    2.3560   -2.4560 os        1 U6M     -0.586200
     19 P          -2.8050    3.2440   -2.8740 p5        1 U6M      1.428800
     20 O3P        -2.8940    2.7840   -4.4420 oh        1 U6M     -0.784400
     21 O1P        -3.9920    2.6240   -2.2400 o         1 U6M     -0.848500
     22 O2P        -2.4590    4.6780   -2.7960 o         1 U6M     -0.848500
     23 H1          1.6100   -0.4690    2.0960 hn        1 U6M      0.330500
     24 H2          4.6430    1.2960   -0.2600 ha        1 U6M      0.151000
     25 H5          3.8850   -0.0490   -3.2270 hc        1 U6M      0.067700
     26 H6          4.3020    1.5650   -2.5080 hc        1 U6M      0.067700
     27 H7          2.6480    1.2890   -3.2190 hc        1 U6M      0.067700
     28 H8          2.0200   -1.0880   -3.1750 h2        1 U6M      0.052700
     29 H9         -0.1110   -2.3290   -1.4520 h1        1 U6M      0.068700
     30 H10         0.2310   -3.0620   -4.0470 ho        1 U6M      0.437000
     31 H11        -2.0130   -1.5150   -2.4910 h1        1 U6M     -0.044300
     32 H12        -3.1510    1.8750   -4.5380 ho        1 U6M      0.423000
     33 H13        -1.0010    0.5530   -4.3240 h1        1 U6M      0.071700
     34 H14        -2.7390    0.7090   -2.3620 h1        1 U6M      0.033700
     35 H15        -1.2890    0.7220   -1.2340 h1        1 U6M      0.033700
@<TRIPOS>BOND
     1    1    2 2   
     2    2    3 1   
     3    2    9 1   
     4    3    4 1   
     5    3   23 1   
     6    4    5 2   
     7    4    6 1   
     8    6    7 2   
     9    6   24 1   
    10    7    8 1   
    11    7    9 1   
    12    8   25 1   
    13    8   26 1   
    14    8   27 1   
    15    9   10 1   
    16   10   11 1   
    17   10   12 1   
    18   10   28 1   
    19   11   16 1   
    20   12   13 1   
    21   12   14 1   
    22   12   29 1   
    23   13   30 1   
    24   14   15 1   
    25   14   16 1   
    26   14   31 1   
    27   16   17 1   
    28   16   33 1   
    29   17   18 1   
    30   17   34 1   
    31   17   35 1   
    32   18   19 1   
    33   19   20 1   
    34   19   21 1   
    35   19   22 1   
    36   20   32 1   
@<TRIPOS>SUBSTRUCTURE
     1 U6M         1 TEMP              0 ****  ****    0 ROOT
