@<TRIPOS>MOLECULE
U73
   33    34     1     0     0
SMALL
bcc


@<TRIPOS>ATOM
      1 O11        -0.2470    2.2690    0.3330 o         1 U73     -0.603100
      2 C10         0.5820    1.4300   -0.0800 c         1 U73      0.707500
      3 N9          1.0090    0.3200    0.6550 ne        1 U73     -0.774100
      4 C3          0.5210    0.0460    1.8480 cd        1 U73      0.676100
      5 N4          0.9510   -1.0730    2.5760 na        1 U73     -0.686000
      6 C5          0.3130   -1.2010    3.8070 cc        1 U73      0.019000
      7 S2         -0.6860    0.9070    2.7940 ss        1 U73      0.005200
      8 C1         -0.5970   -0.2150    4.0760 cd        1 U73     -0.148600
      9 C6         -1.4060   -0.1230    5.3120 c3        1 U73      0.010500
     10 C8         -1.1770    1.2000    6.0200 c3        1 U73     -0.092600
     11 C7         -2.8830   -0.3140    5.0140 c3        1 U73     -0.092600
     12 C12         1.2160    1.5900   -1.4530 c3        1 U73     -0.080100
     13 C13         0.8760    0.4680   -2.3610 ca        1 U73     -0.191600
     14 C14        -0.1440    0.5850   -3.3120 ca        1 U73     -0.086000
     15 C15        -0.4130   -0.4940   -4.1560 ca        1 U73     -0.249300
     16 C16         0.3550   -1.6630   -4.0150 ca        1 U73      0.392200
     17 N17         1.3400   -1.8000   -3.1060 nb        1 U73     -0.671000
     18 C18         1.5880   -0.7520   -2.3000 ca        1 U73      0.416200
     19 H4          1.6180   -1.7220    2.2330 hn        1 U73      0.474800
     20 H5          0.5810   -2.0520    4.4460 h4        1 U73      0.181000
     21 H6         -1.0810   -0.9520    6.0080 hc        1 U73      0.052700
     22 H8C1       -1.4740    2.0540    5.3640 hc        1 U73      0.041700
     23 H8C2       -0.1010    1.3180    6.2900 hc        1 U73      0.041700
     24 H8C3       -1.7870    1.2410    6.9540 hc        1 U73      0.041700
     25 H7C1       -3.4690   -0.2740    5.9630 hc        1 U73      0.041700
     26 H7C2       -3.2540    0.4890    4.3320 hc        1 U73      0.041700
     27 H7C3       -3.0580   -1.3030    4.5260 hc        1 U73      0.041700
     28 H121        0.8500    2.5630   -1.8800 hc        1 U73      0.076700
     29 H122        2.3300    1.6610   -1.3280 hc        1 U73      0.076700
     30 H14        -0.7260    1.5150   -3.3920 ha        1 U73      0.142000
     31 H15        -1.2050   -0.4350   -4.9120 ha        1 U73      0.142000
     32 H16         0.1750   -2.5400   -4.6630 h4        1 U73      0.019100
     33 H18         2.3930   -0.8900   -1.5560 h4        1 U73      0.032100
@<TRIPOS>BOND
     1    1    2 2
     2    2    3 1
     3    2   12 1
     4    3    4 2
     5    4    5 1
     6    4    7 1
     7    5    6 1
     8    5   19 1
     9    6    8 2
    10    6   20 1
    11    7    8 1
    12    8    9 1
    13    9   10 1
    14    9   11 1
    15    9   21 1
    16   10   22 1
    17   10   23 1
    18   10   24 1
    19   11   25 1
    20   11   26 1
    21   11   27 1
    22   12   13 1
    23   12   28 1
    24   12   29 1
    25   13   14 ar
    26   13   18 ar
    27   14   15 ar
    28   14   30 1
    29   15   16 ar
    30   15   31 1
    31   16   17 ar
    32   16   32 1
    33   17   18 ar
    34   18   33 1
@<TRIPOS>SUBSTRUCTURE
     1 U73         1 TEMP              0 ****  ****    0 ROOT
