@<TRIPOS>MOLECULE
U75
   51    53     1     0     0
SMALL
bcc


@<TRIPOS>ATOM
      1 C4           0.0000     0.0000     0.0000 ca         1 U75       0.447600
      2 C5           1.3950     0.0000     0.0000 ca         1 U75      -0.220600
      3 C6           2.0610     0.0000     1.2420 ca         1 U75       0.548200
      4 N1           1.3380    -0.0010     2.3560 nb         1 U75      -0.681000
      5 N3          -0.6430     0.0040     1.1550 nb         1 U75      -0.662000
      6 CAI         -1.0210    -1.4410    -1.7420 c3         1 U75       0.011900
      7 CAH         -0.7630     0.0010    -1.3000 c3         1 U75      -0.080700
      8 C2           0.0150    -0.0020     2.3060 ca         1 U75       0.731900
      9 NAJ         -0.7010    -0.0040     3.4880 nv         1 U75      -0.632500
     10 NAG          3.4420    -0.0010     1.2990 nv         1 U75      -0.567500
     11 CAK          2.1300     0.0010    -1.2290 cg         1 U75      -0.117000
     12 CAL          2.7220     0.0180    -2.2430 c1         1 U75      -0.133100
     13 CAM          3.5420    -0.2640    -3.4740 c3         1 U75       0.180000
     14 CAN          4.9970    -0.7110    -2.8450 ca         1 U75      -0.053300
     15 CAO          5.8630     0.2120    -2.8030 ca         1 U75      -0.137000
     16 CAS          5.2960    -1.9450    -2.3980 ca         1 U75      -0.184000
     17 CAR          6.4820    -2.2220    -1.9100 ca         1 U75       0.132100
     18 OBB          6.8030    -3.7030    -1.4260 os         1 U75      -0.359900
     19 CBC          5.7650    -4.5010    -1.1860 c3         1 U75       0.265700
     20 CAQ          7.4410    -1.3350    -1.8260 ca         1 U75      -0.137000
     21 CAP          7.1070    -0.0340    -2.3040 cp         1 U75      -0.007000
     22 CAT          8.3960     1.2160    -2.2060 cp         1 U75       0.050000
     23 CAU          9.6240     1.0210    -1.7270 ca         1 U75      -0.197500
     24 CAV         10.4740     2.1900    -1.7590 ca         1 U75      -0.045000
     25 CAW         10.2390     3.1470    -2.1070 ca         1 U75      -0.140600
     26 CAZ         11.1040     4.3380    -2.0790 c          1 U75       0.874200
     27 OBD         10.8160     5.8610    -2.5930 o          1 U75      -0.823800
     28 OBA         12.1440     4.3120    -1.9360 o          1 U75      -0.823800
     29 CAX          8.7980     3.3960    -2.6750 ca         1 U75      -0.045000
     30 CAY          7.9270     2.3800    -2.6930 ca         1 U75      -0.197500
     31 H1          -1.2140    -1.4630    -2.8070 hc         1 U75       0.003367
     32 H2          -0.1520    -2.0480    -1.5190 hc         1 U75       0.003367
     33 H3          -1.8800    -1.8330    -1.2110 hc         1 U75       0.003367
     34 H4          -1.6570     0.6040    -1.1930 hc         1 U75       0.028700
     35 H5          -0.1410     0.4140    -2.0840 hc         1 U75       0.028700
     36 H6          -0.8220    -0.8560     3.9990 hn         1 U75       0.275800
     37 H7          -1.0990     0.8470     3.8340 hn         1 U75       0.275800
     38 H8           3.9630     0.7080     0.8210 hn         1 U75       0.281800
     39 H9           3.9190    -0.6720     1.8690 hn         1 U75       0.281800
     40 H10          3.6440     0.6280    -4.0800 hc         1 U75       0.023700
     41 H11          3.1070    -1.0730    -4.0480 hc         1 U75       0.023700
     42 H12          5.5500     1.2480    -2.8550 ha         1 U75       0.126000
     43 H13          4.5020    -2.6500    -2.1840 ha         1 U75       0.118000
     44 H14          5.0600    -3.9930    -0.5390 h1         1 U75      -0.022300
     45 H15          6.1100    -5.4070    -0.7030 h1         1 U75      -0.022300
     46 H16          5.2790    -4.7520    -2.1210 h1         1 U75      -0.022300
     47 H17          8.4720    -1.6370    -1.9620 ha         1 U75       0.140000
     48 H18          9.7960     0.2700    -0.9660 ha         1 U75       0.123500
     49 H19         11.4860     2.0520    -1.3990 ha         1 U75       0.105500
     50 H21          8.4670     4.4060    -2.8870 ha         1 U75       0.105500
     51 H22          7.0400     2.9460    -2.9500 ha         1 U75       0.123500
@<TRIPOS>BOND
     1     1     2 ar  
     2     1     5 ar  
     3     1     7 1   
     4     2     3 ar  
     5     2    11 1   
     6     3     4 ar  
     7     3    10 1   
     8     4     8 ar  
     9     5     8 ar  
    10     6     7 1   
    11     6    31 1   
    12     6    32 1   
    13     6    33 1   
    14     7    34 1   
    15     7    35 1   
    16     8     9 1   
    17     9    36 1   
    18     9    37 1   
    19    10    38 1   
    20    10    39 1   
    21    11    12 3   
    22    12    13 1   
    23    13    14 1   
    24    13    40 1   
    25    13    41 1   
    26    14    15 ar  
    27    14    16 ar  
    28    15    21 ar  
    29    15    42 1   
    30    16    17 ar  
    31    16    43 1   
    32    17    18 1   
    33    17    20 ar  
    34    18    19 1   
    35    19    44 1   
    36    19    45 1   
    37    19    46 1   
    38    20    21 ar  
    39    20    47 1   
    40    21    22 1   
    41    22    23 ar  
    42    22    30 ar  
    43    23    24 ar  
    44    23    48 1   
    45    24    25 ar  
    46    24    49 1   
    47    25    26 1   
    48    25    29 ar  
    49    26    27 1   
    50    26    28 1   
    51    29    30 ar  
    52    29    50 1   
    53    30    51 1   
@<TRIPOS>SUBSTRUCTURE
     1 U75         1 TEMP              0 ****  ****    0 ROOT
