@<TRIPOS>MOLECULE
U7E
   23    24     1     0     0
SMALL
bcc


@<TRIPOS>ATOM
      1 O1           0.0000     0.0000     0.0000 o          1 U7E      -0.488800
      2 S            1.4210     0.0000     0.0000 sy         1 U7E       0.940200
      3 O            2.1980     0.0000     1.1900 o          1 U7E      -0.488800
      4 N4           1.8870    -1.3330    -0.8640 nz         1 U7E      -0.131500
      5 C            1.9200     1.4170    -0.9200 ca         1 U7E      -0.227500
      6 C5           1.0600     1.9730    -1.8510 ca         1 U7E       0.017000
      7 C4           1.4430     3.0860    -2.5770 ca         1 U7E      -0.094000
      8 C3           2.6870     3.6490    -2.3760 ca         1 U7E      -0.004000
      9 C2           3.5580     3.0940    -1.4400 ca         1 U7E      -0.122500
     10 C1           3.1640     1.9750    -0.7060 ca         1 U7E       0.053000
     11 C6           4.8940     3.6920    -1.2200 cc         1 U7E       0.253000
     12 N3           5.4060     4.7760    -1.8530 na         1 U7E       0.311600
     13 N2           6.6890     4.9510    -1.3070 nc         1 U7E      -0.349800
     14 N1           6.8540     4.0170    -0.4330 nd         1 U7E       0.055000
     15 N            5.8080     3.2760    -0.3680 nd         1 U7E      -0.377000
     16 H41N         1.4430    -1.3230    -1.7600 hn         1 U7E       0.314800
     17 H42N         1.6200    -2.1620    -0.3690 hn         1 U7E       0.314800
     18 H5           0.0830     1.5350    -2.0120 ha         1 U7E       0.129000
     19 H1           3.8360     1.5390     0.0230 ha         1 U7E       0.152000
     20 H4           0.7660     3.5160    -3.3050 ha         1 U7E       0.136000
     21 H3           2.9870     4.5190    -2.9470 ha         1 U7E       0.115000
     22 HA           4.9650     5.3330    -2.5580 hn         1 U7E       0.176700
     23 H43          2.8790    -1.3130    -0.9980 hn         1 U7E       0.314800
@<TRIPOS>BOND
     1     1     2 2   
     2     2     3 2   
     3     2     4 1   
     4     2     5 1   
     5     4    16 1   
     6     4    17 1   
     7     4    23 1   
     8     5     6 ar  
     9     5    10 ar  
    10     6     7 ar  
    11     6    18 1   
    12     7     8 ar  
    13     7    20 1   
    14     8     9 ar  
    15     8    21 1   
    16     9    10 ar  
    17     9    11 1   
    18    10    19 1   
    19    11    12 1   
    20    11    15 2   
    21    12    13 1   
    22    12    22 1   
    23    13    14 2   
    24    14    15 1   
@<TRIPOS>SUBSTRUCTURE
     1 U7E         1 TEMP              0 ****  ****    0 ROOT
