@<TRIPOS>MOLECULE
molecule
   23    24     1     0     0
SMALL
bcc


@<TRIPOS>ATOM
      1 O1           0.0000     0.0000     0.0000 o          1 U7E      -0.509300
      2 S            1.4210     0.0000     0.0000 sy         1 U7E       1.233200
      3 O            2.1980     0.0000     1.1900 o          1 U7E      -0.509300
      4 N4           1.8870    -1.3330    -0.8640 nz         1 U7E      -0.808500
      5 C            1.9200     1.4170    -0.9200 ca         1 U7E      -0.345500
      6 C5           1.0600     1.9730    -1.8510 ca         1 U7E      -0.020000
      7 C4           1.4430     3.0860    -2.5770 ca         1 U7E      -0.122000
      8 C3           2.6870     3.6490    -2.3760 ca         1 U7E      -0.027000
      9 C2           3.5580     3.0940    -1.4400 ca         1 U7E      -0.122500
     10 C1           3.1640     1.9750    -0.7060 ca         1 U7E       0.015000
     11 C6           4.8940     3.6920    -1.2200 cc         1 U7E       0.434000
     12 N3           5.4060     4.7760    -1.8530 na         1 U7E      -0.176400
     13 N2           6.6890     4.9510    -1.3070 nc         1 U7E      -0.162800
     14 N1           6.8540     4.0170    -0.4330 nd         1 U7E       0.017000
     15 N            5.8080     3.2760    -0.3680 nd         1 U7E      -0.400000
     16 H41N         1.4430    -1.3230    -1.7600 hn         1 U7E       0.493800
     17 H42N         1.6200    -2.1620    -0.3690 hn         1 U7E       0.493800
     18 H5           0.0830     1.5350    -2.0120 ha         1 U7E       0.161000
     19 H1           3.8360     1.5390     0.0230 ha         1 U7E       0.185000
     20 H4           0.7660     3.5160    -3.3050 ha         1 U7E       0.173000
     21 H3           2.9870     4.5190    -2.9470 ha         1 U7E       0.156000
     22 HA           4.9650     5.3330    -2.5580 hn         1 U7E       0.344700
     23 H43          2.8790    -1.3130    -0.9980 hn         1 U7E       0.493800
@<TRIPOS>BOND
     1     1     2 2
     2     2     3 2
     3     2     4 1
     4     2     5 1
     5     5     6 ar
     6     5    10 ar
     7     6     7 ar
     8     7     8 ar
     9     8     9 ar
    10     9    10 ar
    11     9    11 1
    12    11    12 1
    13    11    15 2
    14    12    13 1
    15    13    14 2
    16    14    15 1
    17     4    16 1
    18     4    17 1
    19     6    18 1
    20    10    19 1
    21     7    20 1
    22     8    21 1
    23    12    22 1
    24    23     4 1
@<TRIPOS>SUBSTRUCTURE
     1 U7E         1 TEMP              0 ****  ****    0 ROOT
