@<TRIPOS>MOLECULE
molecule
   59    63     1     0     0
SMALL
bcc


@<TRIPOS>ATOM
      1 C1           0.0000     0.0000     0.0000 c3         1 U85       0.026600
      2 N1           1.4640     0.0000     0.0000 nh         1 U85      -0.278100
      3 C2           2.1970     0.0000     1.2690 c3         1 U85       0.026600
      4 C3           2.1600    -0.0000    -1.2050 cc         1 U85       0.246700
      5 C4           3.5550    -0.0070    -1.2260 cd         1 U85      -0.224000
      6 C5           4.2070    -0.0130    -2.4420 cc         1 U85       0.025000
      7 C6           1.4810    -0.0000    -2.4240 cc         1 U85      -0.224000
      8 C7           2.2070    -0.0010    -3.5950 cd         1 U85       0.025000
      9 N2           3.5280    -0.0120    -3.5730 na         1 U85      -0.208200
     10 C8           4.2600    -0.0170    -4.8420 c3         1 U85       0.233100
     11 C9           4.5050    -1.4400    -5.2740 ca         1 U85      -0.171300
     12 C10          3.5790    -2.0870    -6.0720 ca         1 U85      -0.100000
     13 C11          3.7980    -3.3900    -6.4720 ca         1 U85      -0.115500
     14 C12          5.6580    -2.0920    -4.8770 ca         1 U85      -0.100000
     15 C13          5.8880    -3.3940    -5.2710 ca         1 U85      -0.115500
     16 C14          4.9560    -4.0530    -6.0690 cp         1 U85       0.016000
     17 C15          5.1970    -5.4540    -6.4960 cp         1 U85      -0.056000
     18 C16          6.3550    -6.1170    -6.0940 ca         1 U85      -0.111000
     19 C17          6.5750    -7.4200    -6.4930 ca         1 U85      -0.099500
     20 C18          4.2650    -6.1120    -7.2950 ca         1 U85      -0.111000
     21 C19          4.4950    -7.4150    -7.6880 ca         1 U85      -0.099500
     22 C20          5.6490    -8.0670    -7.2910 ca         1 U85      -0.105300
     23 C21          5.8940    -9.4890    -7.7240 c3         1 U85       0.070600
     24 N3           5.3210   -10.4060    -6.7350 na         1 U85      -0.160900
     25 C22          6.0800   -10.8360    -5.6720 cd         1 U85      -0.043300
     26 N4           7.3190   -10.6240    -5.2560 nc         1 U85      -0.472300
     27 C23          7.5200   -11.3160    -4.1410 cc         1 U85       0.568200
     28 N5           6.4310   -11.9820    -3.8170 nc         1 U85      -0.629100
     29 C24          5.4900   -11.7220    -4.7410 cc         1 U85      -0.154900
     30 C25          4.1590   -12.1180    -4.9470 cd         1 U85       0.815200
     31 N6           3.5440   -12.9750    -4.0690 nv         1 U85      -0.948500
     32 N7           3.4980   -11.6490    -6.0100 nd         1 U85      -0.814000
     33 C26          4.0510   -10.8250    -6.8620 cc         1 U85       0.599400
     34 H1          -0.3610    -0.0030     1.0210 h1         1 U85       0.062867
     35 H2          -0.3610     0.8860    -0.5080 h1         1 U85       0.062867
     36 H3          -0.3610    -0.8830    -0.5130 h1         1 U85       0.062867
     37 H4           1.4930     0.0040     2.0930 h1         1 U85       0.062867
     38 H5           2.8230     0.8820     1.3250 h1         1 U85       0.062867
     39 H6           2.8160    -0.8870     1.3290 h1         1 U85       0.062867
     40 H7           4.1180    -0.0080    -0.3000 ha         1 U85       0.185500
     41 H8           5.2900    -0.0200    -2.4680 h4         1 U85       0.196500
     42 H9           0.3980     0.0090    -2.4490 ha         1 U85       0.185500
     43 H10          1.6880    -0.0000    -4.5460 h4         1 U85       0.196500
     44 H12          5.2080     0.4900    -4.7140 h1         1 U85       0.093700
     45 H13          3.6760     0.4940    -5.5980 h1         1 U85       0.093700
     46 H14          2.6790    -1.5710    -6.3840 ha         1 U85       0.128500
     47 H15          3.0710    -3.8960    -7.0940 ha         1 U85       0.153500
     48 H16          6.3830    -1.5790    -4.2560 ha         1 U85       0.128500
     49 H17          6.7910    -3.9050    -4.9580 ha         1 U85       0.153500
     50 H18          7.0810    -5.6100    -5.4700 ha         1 U85       0.136000
     51 H19          7.4760    -7.9360    -6.1840 ha         1 U85       0.151500
     52 H20          3.3610    -5.6030    -7.6070 ha         1 U85       0.136000
     53 H21          3.7720    -7.9270    -8.3110 ha         1 U85       0.151500
     54 H22          6.9600    -9.6640    -7.8040 h1         1 U85       0.085200
     55 H23          5.4270    -9.6590    -8.6870 h1         1 U85       0.085200
     56 H24          8.4460   -11.3310    -3.5790 h5         1 U85       0.072800
     57 H25          2.5950   -13.2530    -4.2230 hn         1 U85       0.459300
     58 H26          4.0450   -13.3220    -3.2750 hn         1 U85       0.459300
     59 H27          3.4680   -10.4770    -7.7060 h5         1 U85       0.059100
@<TRIPOS>BOND
     1    10     9 1
     2    10    11 1
     3     6     9 1
     4     6     5 2
     5     9     8 1
     6     5     4 1
     7    11    12 ar
     8    11    14 ar
     9     8     7 2
    10     4     7 1
    11     4     2 2
    12    12    13 ar
    13    14    15 ar
    14     3     2 1
    15     2     1 1
    16    13    16 ar
    17    15    16 ar
    18    16    17 1
    19    17    18 ar
    20    17    20 ar
    21    18    19 ar
    22    20    21 ar
    23    19    22 ar
    24    21    22 ar
    25    22    23 1
    26    23    24 1
    27    24    33 1
    28    24    25 1
    29    33    32 2
    30    26    25 2
    31    26    27 1
    32    25    29 1
    33    27    28 2
    34    32    30 1
    35    29    30 2
    36    29    28 1
    37    30    31 1
    38     1    34 1
    39     1    35 1
    40     1    36 1
    41     3    37 1
    42     3    38 1
    43     3    39 1
    44     5    40 1
    45     6    41 1
    46     7    42 1
    47     8    43 1
    48    10    44 1
    49    10    45 1
    50    12    46 1
    51    13    47 1
    52    14    48 1
    53    15    49 1
    54    18    50 1
    55    19    51 1
    56    20    52 1
    57    21    53 1
    58    23    54 1
    59    23    55 1
    60    27    56 1
    61    31    57 1
    62    31    58 1
    63    33    59 1
@<TRIPOS>SUBSTRUCTURE
     1 U85         1 TEMP              0 ****  ****    0 ROOT
