@<TRIPOS>MOLECULE
U89
   84    84     1     0     0
SMALL
bcc


@<TRIPOS>ATOM
      1 N          -0.7490    1.0880    0.5300 n         1 U89     -0.500900
      2 CA          0.0110    2.1680    1.1170 c3        1 U89     -0.052300
      3 CB          0.0610    2.1360    2.6490 c3        1 U89     -0.088400
      4 CG         -1.2170    2.5960    3.2720 cx        1 U89      0.056100
      5 CD         -1.3220    2.8470    4.7010 c         1 U89      0.687600
      6 OE1        -1.8490    1.6600    4.2560 os        1 U89     -0.474900
      7 OE2        -1.2570    3.3250    5.8120 o         1 U89     -0.539500
      8 C           1.5110    2.1750    0.6030 c         1 U89      0.921600
      9 OT1         1.8910    1.2370   -0.1460 o         1 U89     -0.815300
     10 OT2         2.2080    3.1440    0.9950 o         1 U89     -0.815300
     11 C1        -18.5560   -2.3850   -2.8000 cy        1 U89      0.389200
     12 C2        -15.3570   -3.1780   -4.3660 c3        1 U89     -0.109100
     13 C3        -14.0100   -2.9110   -3.7460 c3        1 U89     -0.090400
     14 C4        -12.9920   -2.5700   -4.8350 c3        1 U89      0.087000
     15 N5        -11.6800   -2.2600   -4.3280 n         1 U89     -0.561900
     16 C6        -10.5380   -2.5480   -5.0290 c         1 U89      0.664100
     17 O6        -10.5660   -3.1390   -6.1310 o         1 U89     -0.626100
     18 C7         -9.1980   -2.1610   -4.4380 c3        1 U89     -0.121300
     19 S          -9.2110   -0.9020   -3.2020 ss        1 U89     -0.252200
     20 C8         -8.8420   -1.7680   -1.7100 c3        1 U89     -0.107300
     21 C9         -7.4740   -2.4170   -1.7160 c         1 U89      0.665100
     22 O9         -7.3730   -3.6050   -2.0910 o         1 U89     -0.607100
     23 C11        -6.4390   -0.2920   -0.9450 c3        1 U89      0.082000
     24 C12        -6.6860   -0.0630    0.5470 c3        1 U89     -0.103400
     25 C13        -6.6480    1.4250    0.8480 c3        1 U89     -0.001200
     26 C14        -6.9170    1.7030    2.2790 cc        1 U89     -0.383400
     27 C15        -8.2670    2.0820    2.6290 c         1 U89      0.724700
     28 O15        -9.2420    2.1920    1.8570 o         1 U89     -0.666500
     29 N16        -8.5260    2.3550    3.9980 n         1 U89     -0.501400
     30 C17        -7.4870    2.2950    4.9330 cc        1 U89      0.671800
     31 N18        -7.7770    2.7120    6.2650 nh        1 U89     -0.884800
     32 N19        -6.2350    1.9220    4.6280 nd        1 U89     -0.724300
     33 C20        -5.9360    1.6230    3.2850 cd        1 U89      0.448600
     34 N21        -4.6600    1.1810    3.0200 nh        1 U89     -0.820600
     35 C22        -5.1080   -2.3410   -1.1430 c2        1 U89     -0.000700
     36 C23        -3.8890   -1.7980   -1.8600 c3        1 U89      0.040900
     37 C24        -3.2260   -0.7770   -1.1020 c1        1 U89     -0.083100
     38 C25        -2.6790    0.0750   -0.4660 cg        1 U89     -0.151200
     39 C26        -4.8330   -4.4600    0.3600 c2        1 U89     -0.203100
     40 C27        -4.9760   -3.3960   -0.3640 c1        1 U89     -0.036800
     41 C28        -2.0950    1.1400    0.3160 c         1 U89      0.686300
     42 O28        -2.8390    2.0340    0.8020 o         1 U89     -0.682100
     43 OP4       -18.2920   -3.7670   -2.7140 os        1 U89     -0.604200
     44 P         -19.9350   -4.2360   -2.8460 p5        1 U89      1.419800
     45 OP1       -19.9520   -2.5260   -2.9300 os        1 U89     -0.604200
     46 OP2       -20.2220   -4.8450   -4.1490 o         1 U89     -0.805500
     47 OP3       -20.4670   -4.7200   -1.5690 o         1 U89     -0.805500
     48 HN          0.9280   -1.3480   -1.0130 ha        1 U89      0.000500
     49 HA         -0.1920    0.4170    0.0320 hn        1 U89      0.348500
     50 HB1        -0.4470    3.1500    0.7970 h1        1 U89      0.059700
     51 HB2         0.3200    1.1090    3.0180 hc        1 U89      0.086700
     52 HG1         0.8920    2.8350    2.9530 hc        1 U89      0.086700
     53 HG2        -1.9630    3.0430    2.5770 h1        1 U89      0.141700
     54 H11       -16.1160   -3.4290   -3.5790 hc        1 U89      0.052033
     55 H12       -18.2650   -1.8340   -1.8690 h2        1 U89      0.006200
     56 H21       -18.0830   -1.9150   -3.7010 h2        1 U89      0.006200
     57 H22       -15.7220   -2.2800   -4.9230 hc        1 U89      0.052033
     58 H31       -15.3000   -4.0340   -5.0810 hc        1 U89      0.052033
     59 H32       -14.0920   -2.0630   -3.0150 hc        1 U89      0.040700
     60 H41       -13.6710   -3.8140   -3.1740 hc        1 U89      0.040700
     61 H42       -12.9050   -3.4390   -5.5490 h1        1 U89      0.051700
     62 HN5       -13.3750   -1.6850   -5.4230 h1        1 U89      0.051700
     63 H71        -8.5650   -1.7770   -5.2800 h1        1 U89      0.116200
     64 H72        -8.7130   -3.0960   -4.0470 h1        1 U89      0.116200
     65 H81        -8.9530   -1.0130   -0.8900 h1        1 U89      0.108200
     66 H82        -9.5890   -2.5840   -1.5320 h1        1 U89      0.108200
     67 H111       -7.2550    0.2060   -1.5440 h1        1 U89      0.066200
     68 H112       -5.4650    0.2080   -1.2250 h1        1 U89      0.066200
     69 H121       -7.6830   -0.4790    0.8450 hc        1 U89      0.050200
     70 H122       -5.9050   -0.5930    1.1520 hc        1 U89      0.050200
     71 H131       -5.6510    1.8480    0.5440 hc        1 U89      0.058200
     72 H132       -7.4270    1.9440    0.2230 hc        1 U89      0.058200
     73 HN6        -9.4320    2.6780    4.2530 hn        1 U89      0.328500
     74 HN81       -8.6260    2.3300    6.6250 hn        1 U89      0.404300
     75 HN82       -7.0070    2.5940    6.8910 hn        1 U89      0.404300
     76 HN11       -3.9540    1.2870    3.7150 hn        1 U89      0.451300
     77 HN12       -4.3550    1.2230    2.0700 hn        1 U89      0.451300
     78 H23        -4.1830   -1.3860   -2.8670 hc        1 U89      0.080200
     79 H24        -3.1750   -2.6520   -2.0410 hc        1 U89      0.080200
     80 H26        -4.9640   -5.4720   -0.0540 ha        1 U89      0.132000
     81 H27        -4.5740   -4.4110    1.4280 ha        1 U89      0.132000
     82 HN3         1.3610   -0.8390   -0.8910 ha        1 U89      0.000500
     83 H52       -11.6160   -1.7250   -3.4930 hn        1 U89      0.321500
     84 N10        -6.3510   -1.6790   -1.3540 n         1 U89     -0.379000
@<TRIPOS>BOND
     1    1    2 1
     2    1   41 1
     3    1   49 1
     4    2    3 1
     5    2    8 1
     6    2   50 1
     7    3    4 1
     8    3   51 1
     9    3   52 1
    10    4    5 1
    11    4    6 1
    12    4   53 1
    13    5    6 1
    14    5    7 2
    15    8    9 1
    16    8   10 1
    17   11   43 1
    18   11   45 1
    19   11   55 1
    20   11   56 1
    21   12   13 1
    22   12   54 1
    23   12   57 1
    24   12   58 1
    25   13   14 1
    26   13   59 1
    27   13   60 1
    28   14   15 1
    29   14   61 1
    30   14   62 1
    31   15   16 1
    32   15   83 1
    33   16   17 2
    34   16   18 1
    35   18   19 1
    36   18   63 1
    37   18   64 1
    38   19   20 1
    39   20   21 1
    40   20   65 1
    41   20   66 1
    42   21   22 2
    43   21   84 1
    44   23   24 1
    45   23   67 1
    46   23   68 1
    47   23   84 1
    48   24   25 1
    49   24   69 1
    50   24   70 1
    51   25   26 1
    52   25   71 1
    53   25   72 1
    54   26   27 1
    55   26   33 2
    56   27   28 2
    57   27   29 1
    58   29   30 1
    59   29   73 1
    60   30   31 1
    61   30   32 2
    62   31   74 1
    63   31   75 1
    64   32   33 1
    65   33   34 1
    66   34   76 1
    67   34   77 1
    68   35   36 1
    69   35   40 2
    70   35   84 1
    71   36   37 1
    72   36   78 1
    73   36   79 1
    74   37   38 3
    75   38   41 1
    76   39   40 2
    77   39   80 1
    78   39   81 1
    79   41   42 2
    80   43   44 1
    81   44   45 1
    82   44   46 1
    83   44   47 1
    84   48   82 1
@<TRIPOS>SUBSTRUCTURE
     1 U89         1 TEMP              0 ****  ****    0 ROOT
