@<TRIPOS>MOLECULE
molecule
   56    58     1     0     0
SMALL
bcc


@<TRIPOS>ATOM
      1 N1           0.0000     0.0000     0.0000 na         1 U8D      -0.058400
      2 C2           1.3690     0.0000     0.0000 cc         1 U8D      -0.019300
      3 C3           1.8260     0.0000     1.2620 cd         1 U8D      -0.172400
      4 C4           0.6560     0.0010     2.1440 ca         1 U8D      -0.043800
      5 C5           0.4850     0.0010     3.5280 ca         1 U8D      -0.154000
      6 C6          -0.7900     0.0020     4.0600 ca         1 U8D       0.159100
      7 C7          -1.8990     0.0020     3.2190 ca         1 U8D      -0.185000
      8 C8          -1.7430     0.0010     1.8510 ca         1 U8D      -0.108000
      9 C9          -0.4680     0.0010     1.2970 ca         1 U8D      -0.076200
     10 C10          2.2340    -0.0020    -1.2330 c3         1 U8D      -0.026200
     11 C11          3.2710    -0.0010     1.6920 c3         1 U8D      -0.019200
     12 O12         -0.9610     0.0020     5.4080 os         1 U8D      -0.323900
     13 C13         -0.8410     0.0060    -1.1990 c3         1 U8D       0.099600
     14 C14         -1.9680    -4.0000    -2.1660 ca         1 U8D      -0.121000
     15 C15         -2.7130    -3.2720    -1.2570 ca         1 U8D      -0.127500
     16 C16         -2.3480    -1.9760    -0.9440 ca         1 U8D      -0.109500
     17 C17         -1.2380    -1.4070    -1.5410 ca         1 U8D      -0.117300
     18 C18         -0.4940    -2.1350    -2.4500 ca         1 U8D      -0.109500
     19 C19         -0.8580    -3.4310    -2.7630 ca         1 U8D      -0.127500
     20 C20          2.4200     1.4350    -1.7270 c3         1 U8D      -0.093100
     21 C21          3.7530     1.4200     1.8350 c          1 U8D       0.277100
     22 O22          2.9980     2.3420     1.6090 o          1 U8D      -0.498100
     23 N23          5.0230     1.6660     2.2120 nz         1 U8D      -0.629400
     24 C24         -2.3070     0.0030     5.8920 c3         1 U8D       0.123400
     25 C25         -2.2990     0.0030     7.4210 c3         1 U8D      -0.043400
     26 P26         -3.7300     0.0040     9.7620 p5         1 U8D       1.054700
     27 O27         -5.2400     0.1380    10.3050 o          1 U8D      -0.772833
     28 O28         -3.0870    -1.3710    10.2960 o          1 U8D      -0.772833
     29 O29         -2.9270     1.1480    10.2500 o          1 U8D      -0.772833
     30 C30         -3.7390     0.0040     7.9380 c3         1 U8D      -0.255600
     31 H5           1.3480     0.0010     4.1830 ha         1 U8D       0.133000
     32 H7          -2.8950     0.0020     3.6450 ha         1 U8D       0.156000
     33 H8          -2.6140     0.0010     1.2070 ha         1 U8D       0.119000
     34 H10          1.7580    -0.5910    -2.0080 hc         1 U8D       0.047200
     35 H10A         3.2010    -0.4300    -0.9960 hc         1 U8D       0.047200
     36 H11          3.3640    -0.5120     2.6420 hc         1 U8D       0.054700
     37 H11A         3.8680    -0.5120     0.9470 hc         1 U8D       0.054700
     38 H13         -1.7310     0.5960    -1.0140 h1         1 U8D       0.063700
     39 H13A        -0.2890     0.4350    -2.0260 h1         1 U8D       0.063700
     40 H14         -2.2540    -5.0150    -2.4110 ha         1 U8D       0.129000
     41 H15         -3.5820    -3.7180    -0.7890 ha         1 U8D       0.131500
     42 H16         -2.9320    -1.4060    -0.2310 ha         1 U8D       0.131500
     43 H18          0.3760    -1.6890    -2.9170 ha         1 U8D       0.131500
     44 H19         -0.2740    -4.0010    -3.4750 ha         1 U8D       0.131500
     45 H20          3.4570     1.7240    -1.6130 hc         1 U8D       0.039033
     46 H20A         1.7930     2.1000    -1.1460 hc         1 U8D       0.039033
     47 H20B         2.1400     1.4960    -2.7720 hc         1 U8D       0.039033
     48 HN23         5.2220     2.6400     2.0990 hn         1 U8D       0.423133
     49 HN2A         5.1410     1.4100     3.1730 hn         1 U8D       0.423133
     50 H24         -2.8200    -0.8800     5.5330 h1         1 U8D       0.024700
     51 H24A        -2.8180     0.8890     5.5340 h1         1 U8D       0.024700
     52 H25         -1.7870    -0.8820     7.7790 hc         1 U8D       0.063200
     53 H25A        -1.7860     0.8870     7.7800 hc         1 U8D       0.063200
     54 H30         -4.2500     0.8890     7.5800 hc         1 U8D       0.034700
     55 H30A        -4.2520    -0.8800     7.5800 hc         1 U8D       0.034700
     56 H233         5.6500     1.1360     1.6390 hn         1 U8D       0.423133
@<TRIPOS>BOND
     1     2     1 1
     2     1     9 1
     3     1    13 1
     4     3     2 2
     5    10     2 1
     6    11     3 1
     7     3     4 1
     8     5     4 ar
     9     4     9 ar
    10     5     6 ar
    11     5    31 1
    12    12     6 1
    13     6     7 ar
    14     7     8 ar
    15     7    32 1
    16     9     8 ar
    17     8    33 1
    18    20    10 1
    19    10    34 1
    20    10    35 1
    21    21    11 1
    22    11    36 1
    23    11    37 1
    24    24    12 1
    25    13    17 1
    26    13    38 1
    27    13    39 1
    28    15    14 ar
    29    14    19 ar
    30    14    40 1
    31    16    15 ar
    32    15    41 1
    33    16    17 ar
    34    16    42 1
    35    17    18 ar
    36    18    19 ar
    37    18    43 1
    38    19    44 1
    39    20    45 1
    40    20    46 1
    41    20    47 1
    42    23    21 1
    43    21    22 2
    44    23    48 1
    45    23    49 1
    46    25    24 1
    47    24    50 1
    48    24    51 1
    49    30    25 1
    50    25    52 1
    51    25    53 1
    52    27    26 1
    53    30    26 1
    54    26    29 1
    55    26    28 1
    56    30    54 1
    57    30    55 1
    58    56    23 1
@<TRIPOS>SUBSTRUCTURE
     1 U8D         1 TEMP              0 ****  ****    0 ROOT
