@<TRIPOS>MOLECULE
U8D
   55    57     1     0     0
SMALL
bcc


@<TRIPOS>ATOM
      1 N1         -0.0470    0.2770   -0.1080 na        1 U8D     -0.066400
      2 C2          1.3420   -0.0070   -0.0790 cc        1 U8D     -0.043300
      3 C3          1.7720   -0.1570    1.2400 cd        1 U8D     -0.153400
      4 C4          0.6000   -0.0510    2.0970 ca        1 U8D     -0.050800
      5 C5          0.4180   -0.1200    3.4710 ca        1 U8D     -0.183000
      6 C6         -0.8830    0.0410    3.9880 ca        1 U8D      0.170100
      7 C7         -1.9800    0.2670    3.1220 ca        1 U8D     -0.197000
      8 C8         -1.8100    0.3380    1.7480 ca        1 U8D     -0.112000
      9 C9         -0.5220    0.1790    1.2240 ca        1 U8D     -0.114200
     10 C10         2.1670   -0.0700   -1.3100 c3        1 U8D     -0.025200
     11 C11         3.1410   -0.3790    1.7190 c3        1 U8D     -0.074200
     12 O12        -0.9830   -0.0370    5.3430 os        1 U8D     -0.316900
     13 C13        -0.8780    0.0520   -1.2550 c3        1 U8D      0.084600
     14 C14        -1.7080   -4.0180   -2.3650 ca        1 U8D     -0.133000
     15 C15        -2.0010   -3.5750   -1.0760 ca        1 U8D     -0.134500
     16 C16        -1.7220   -2.2590   -0.7080 ca        1 U8D     -0.115000
     17 C17        -1.1460   -1.3800   -1.6310 ca        1 U8D     -0.115300
     18 C18        -0.8460   -1.8300   -2.9210 ca        1 U8D     -0.115000
     19 C19        -1.1310   -3.1450   -3.2870 ca        1 U8D     -0.134500
     20 C20         2.4790    1.3020   -1.8600 c3        1 U8D     -0.090100
     21 C21         3.8460    0.9150    2.1050 c         1 U8D      0.660100
     22 O22         4.9710    1.2040    1.6350 o         1 U8D     -0.662100
     23 N23         3.2350    1.7390    3.0090 n         1 U8D     -0.659000
     24 C24        -2.3010    0.1440    5.9180 c3        1 U8D      0.129400
     25 C25        -2.1670    0.0450    7.4270 c3        1 U8D     -0.056400
     26 P26        -3.0760    0.0830    9.8630 p5        1 U8D      1.211700
     27 O27        -2.0790    1.2010   10.0700 o         1 U8D     -0.953500
     28 O28        -2.4980   -1.3120    9.9590 o         1 U8D     -0.953500
     29 O29        -4.4140    0.2760   10.5370 o         1 U8D     -0.953500
     30 C30        -3.4870    0.2300    8.0800 c3        1 U8D     -0.275600
     31 H5          1.2520   -0.3100    4.1600 ha        1 U8D      0.151000
     32 H7         -2.9890    0.3870    3.5460 ha        1 U8D      0.154000
     33 H8         -2.6710    0.5170    1.0910 ha        1 U8D      0.119000
     34 H10         3.1270   -0.6010   -1.0670 hc        1 U8D      0.050700
     35 H10A        1.6370   -0.6800   -2.0930 hc        1 U8D      0.050700
     36 H11         3.1190   -1.0490    2.6230 hc        1 U8D      0.072700
     37 H11A        3.7670   -0.8790    0.9330 hc        1 U8D      0.072700
     38 H13        -0.3940    0.5800   -2.1280 h1        1 U8D      0.059700
     39 H13A       -1.8730    0.5490   -1.0510 h1        1 U8D      0.059700
     40 H14        -1.9290   -5.0560   -2.6530 ha        1 U8D      0.123000
     41 H15        -2.4490   -4.2620   -0.3430 ha        1 U8D      0.129000
     42 H16        -1.9440   -1.9060    0.3140 ha        1 U8D      0.142500
     43 H18        -0.3820   -1.1480   -3.6480 ha        1 U8D      0.142500
     44 H19        -0.8950   -3.4940   -4.3020 ha        1 U8D      0.129000
     45 H20         1.5410    1.8490   -2.1170 hc        1 U8D      0.036033
     46 H20A        3.1030    1.2100   -2.7820 hc        1 U8D      0.036033
     47 H20B        3.0440    1.9060   -1.1080 hc        1 U8D      0.036033
     48 HN23        2.3180    1.5420    3.3310 hn        1 U8D      0.320000
     49 HN2A        3.6660    2.5880    3.2740 hn        1 U8D      0.320000
     50 H24        -2.9720   -0.6590    5.5140 h1        1 U8D      0.013200
     51 H24A       -2.6850    1.1510    5.6090 h1        1 U8D      0.013200
     52 H25        -1.7560   -0.9560    7.7300 hc        1 U8D      0.083200
     53 H25A       -1.4620    0.8280    7.8200 hc        1 U8D      0.083200
     54 H30        -3.9280    1.2290    7.9050 hc        1 U8D      0.015700
     55 H30A       -4.2190   -0.5580    7.8240 hc        1 U8D      0.015700
@<TRIPOS>BOND
     1    1    2 1   
     2    1    9 1   
     3    1   13 1   
     4    2    3 2   
     5    2   10 1   
     6    3    4 1   
     7    3   11 1   
     8    4    5 ar  
     9    4    9 ar  
    10    5    6 ar  
    11    5   31 1   
    12    6    7 ar  
    13    6   12 1   
    14    7    8 ar  
    15    7   32 1   
    16    8    9 ar  
    17    8   33 1   
    18   10   20 1   
    19   10   34 1   
    20   10   35 1   
    21   11   21 1   
    22   11   36 1   
    23   11   37 1   
    24   12   24 1   
    25   13   17 1   
    26   13   38 1   
    27   13   39 1   
    28   14   15 ar  
    29   14   19 ar  
    30   14   40 1   
    31   15   16 ar  
    32   15   41 1   
    33   16   17 ar  
    34   16   42 1   
    35   17   18 ar  
    36   18   19 ar  
    37   18   43 1   
    38   19   44 1   
    39   20   45 1   
    40   20   46 1   
    41   20   47 1   
    42   21   22 2   
    43   21   23 1   
    44   23   48 1   
    45   23   49 1   
    46   24   25 1   
    47   24   50 1   
    48   24   51 1   
    49   25   30 1   
    50   25   52 1   
    51   25   53 1   
    52   26   27 1   
    53   26   28 1   
    54   26   29 1   
    55   26   30 1   
    56   30   54 1   
    57   30   55 1   
@<TRIPOS>SUBSTRUCTURE
     1 U8D         1 TEMP              0 ****  ****    0 ROOT
