@<TRIPOS>MOLECULE
U8K
   28    29     1     0     0
SMALL
bcc


@<TRIPOS>ATOM
      1 C1           0.0000     0.0000     0.0000 ca         1 U8K       0.322800
      2 C2           1.4020     0.0000     0.0000 ca         1 U8K      -0.024700
      3 C3           2.0750     0.0000     1.2230 ca         1 U8K      -0.201000
      4 C5          -0.0580    -0.0110     2.3070 ca         1 U8K       0.335200
      5 C7          -0.7330    -0.0000    -1.2810 c          1 U8K       0.873100
      6 O9          -2.0800    -0.0010    -1.2870 o          1 U8K      -0.869300
      7 N10          2.1090    -0.0010    -1.1940 nu         1 U8K      -0.352500
      8 C14          3.1770    -2.5360    -1.1110 ca         1 U8K      -0.142500
      9 O8          -0.1210    -0.0010    -2.3320 o          1 U8K      -0.869300
     10 N6          -0.6720    -0.0050     1.1450 nb         1 U8K      -0.501000
     11 C4           1.3270     0.0010     2.3850 ca         1 U8K      -0.223300
     12 S11          3.5410    -0.8230    -1.3080 sy         1 U8K       1.022200
     13 O13          3.9920    -0.6610    -2.6470 o          1 U8K      -0.612800
     14 O12          4.3130    -0.4440    -0.1770 o          1 U8K      -0.612800
     15 C19          3.1820    -3.1030     0.1500 ca         1 U8K       0.015000
     16 C18          2.8900    -4.4440     0.3060 ca         1 U8K      -0.140500
     17 C17          2.5930    -5.2200    -0.7990 ca         1 U8K      -0.058000
     18 C16          2.5870    -4.6540    -2.0600 ca         1 U8K      -0.140500
     19 C15          2.8790    -3.3120    -2.2160 ca         1 U8K       0.015000
     20 H1           3.1580     0.0040     1.2600 ha         1 U8K       0.169000
     21 H2          -0.6430    -0.0130     3.2180 h4         1 U8K      -0.039900
     22 H4           1.7800     0.5390    -1.9700 hn         1 U8K       0.403800
     23 H5           1.8190    -0.0020     3.3500 ha         1 U8K       0.091000
     24 H6           3.4150    -2.4950     1.0160 ha         1 U8K       0.124500
     25 H7           2.8950    -4.8880     1.2950 ha         1 U8K       0.101000
     26 H8           2.3640    -6.2710    -0.6760 ha         1 U8K       0.091000
     27 H9           2.3540    -5.2620    -2.9260 ha         1 U8K       0.101000
     28 H10          2.8750    -2.8680    -3.2040 ha         1 U8K       0.124500
@<TRIPOS>BOND
     1     1     2 ar  
     2     1     5 1   
     3     1    10 ar  
     4     2     3 ar  
     5     2     7 1   
     6     3    11 ar  
     7     3    20 1   
     8     4    10 ar  
     9     4    11 ar  
    10     4    21 1   
    11     5     6 1   
    12     5     9 1   
    13     7    12 1   
    14     7    22 1   
    15     8    12 1   
    16     8    15 ar  
    17     8    19 ar  
    18    11    23 1   
    19    12    13 2   
    20    12    14 2   
    21    15    16 ar  
    22    15    24 1   
    23    16    17 ar  
    24    16    25 1   
    25    17    18 ar  
    26    17    26 1   
    27    18    19 ar  
    28    18    27 1   
    29    19    28 1   
@<TRIPOS>SUBSTRUCTURE
     1 U8K         1 TEMP              0 ****  ****    0 ROOT
