@<TRIPOS>MOLECULE
U91
   40    42     1     0     0
SMALL
bcc


@<TRIPOS>ATOM
      1 C01          0.0000     0.0000     0.0000 cc         1 U91       0.654600
      2 C02          1.4170     0.0000     0.0000 cc         1 U91      -0.405900
      3 N03         -0.4020     0.0000     1.2450 nd         1 U91      -0.746800
      4 C04          1.8240     0.0000     1.3200 cd         1 U91      -0.184600
      5 N05          0.7200    -0.0050     2.0820 na         1 U91       0.530400
      6 C06          0.6930    -0.0070     3.5470 c3         1 U91       0.015600
      7 O07         -0.8000     0.0050    -1.0980 oh         1 U91      -0.566300
      8 C08          3.2470    -0.0010     1.8140 c3         1 U91       0.085200
      9 C09          2.2920    -0.0010    -1.1840 c          1 U91       0.652700
     10 O10          2.6530     1.0520    -1.6740 o          1 U91      -0.621100
     11 N11          2.6920    -1.1690    -1.7270 ns         1 U91      -0.069100
     12 C12          3.4370    -1.1720    -2.9120 ca         1 U91      -0.097400
     13 C13          2.7880    -1.2070    -4.1410 ca         1 U91       0.106400
     14 C14          4.8270    -1.1330    -2.8560 ca         1 U91       0.106400
     15 C15          3.5220    -1.2100    -5.3120 ca         1 U91       0.105400
     16 C16          5.5660    -1.1350    -4.0250 ca         1 U91       0.105400
     17 C17          4.9160    -1.1760    -5.2600 cp         1 U91      -0.034000
     18 C18          5.7070    -1.1790    -6.5150 cp         1 U91      -0.058000
     19 C19          5.6780    -2.2890    -7.3580 ca         1 U91      -0.070000
     20 C20          6.4760    -0.0690    -6.8600 ca         1 U91      -0.070000
     21 C21          6.4150    -2.2850    -8.5240 ca         1 U91      -0.100500
     22 C22          7.2090    -0.0770    -8.0290 ca         1 U91      -0.100500
     23 C23          7.1830    -1.1840    -8.8580 ca         1 U91      -0.085000
     24 F24          1.4380    -1.2400    -4.1900 f          1 U91      -0.104400
     25 F25          2.8900    -1.2440    -6.5050 f          1 U91      -0.105400
     26 F26          6.9150    -1.0970    -3.9720 f          1 U91      -0.105400
     27 F27          5.4540    -1.0930    -1.6610 f          1 U91      -0.104400
     28 H2           1.1310     0.9130     3.9170 h1         1 U91       0.025033
     29 H3          -0.3320    -0.0820     3.8900 h1         1 U91       0.025033
     30 H4           1.2610    -0.8510     3.9180 h1         1 U91       0.025033
     31 H5           3.3090     0.5590     2.7390 hc         1 U91       0.019033
     32 H6           3.5690    -1.0210     1.9870 hc         1 U91       0.019033
     33 H7           3.8880     0.4580     1.0710 hc         1 U91       0.019033
     34 H8           2.4610    -2.0330    -1.2790 hn         1 U91       0.182500
     35 H9           5.0780    -3.1530    -7.0980 ha         1 U91       0.110000
     36 H10          6.4980     0.7990    -6.2110 ha         1 U91       0.110000
     37 H11          6.3960    -3.1490    -9.1780 ha         1 U91       0.106500
     38 H12          7.8100     0.7850    -8.2960 ha         1 U91       0.106500
     39 H13          7.7600    -1.1860    -9.7750 ha         1 U91       0.103000
     40 H1          -1.6640     0.2950    -0.8570 ho         1 U91       0.416000
@<TRIPOS>BOND
     1     1     2 1   
     2     1     3 2   
     3     1     7 1   
     4     2     4 2   
     5     2     9 1   
     6     3     5 1   
     7     4     5 1   
     8     4     8 1   
     9     5     6 1   
    10     6    28 1   
    11     6    29 1   
    12     6    30 1   
    13     7    40 1   
    14     8    31 1   
    15     8    32 1   
    16     8    33 1   
    17     9    10 2   
    18     9    11 1   
    19    11    12 1   
    20    11    34 1   
    21    12    13 ar  
    22    12    14 ar  
    23    13    15 ar  
    24    13    24 1   
    25    14    16 ar  
    26    14    27 1   
    27    15    17 ar  
    28    15    25 1   
    29    16    17 ar  
    30    16    26 1   
    31    17    18 1   
    32    18    19 ar  
    33    18    20 ar  
    34    19    21 ar  
    35    19    35 1   
    36    20    22 ar  
    37    20    36 1   
    38    21    23 ar  
    39    21    37 1   
    40    22    23 ar  
    41    22    38 1   
    42    23    39 1   
@<TRIPOS>SUBSTRUCTURE
     1 U91         1 TEMP              0 ****  ****    0 ROOT
