@<TRIPOS>MOLECULE
molecule
   40    42     1     0     0
SMALL
bcc


@<TRIPOS>ATOM
      1 C01          0.0000     0.0000     0.0000 cc         1 U91       0.606600
      2 C02          1.4170     0.0000     0.0000 cd         1 U91      -0.378900
      3 N03         -0.4020     0.0000     1.2450 nd         1 U91      -0.594800
      4 C04          1.8240     0.0000     1.3200 cc         1 U91      -0.010600
      5 N05          0.7200    -0.0050     2.0820 na         1 U91       0.089400
      6 C06          0.6930    -0.0070     3.5470 c3         1 U91       0.063600
      7 O07         -0.8000     0.0050    -1.0980 oh         1 U91      -0.577300
      8 C08          3.2470    -0.0010     1.8140 c3         1 U91      -0.037800
      9 C09          2.2920    -0.0010    -1.1840 c          1 U91       0.725700
     10 O10          2.6530     1.0520    -1.6740 o          1 U91      -0.574100
     11 N11          2.6920    -1.1690    -1.7270 ns         1 U91      -0.489100
     12 C12          3.4370    -1.1720    -2.9120 ca         1 U91       0.022600
     13 C13          2.7880    -1.2070    -4.1410 ca         1 U91       0.114900
     14 C14          4.8270    -1.1330    -2.8560 ca         1 U91       0.114900
     15 C15          3.5220    -1.2100    -5.3120 ca         1 U91       0.118900
     16 C16          5.5660    -1.1350    -4.0250 ca         1 U91       0.118900
     17 C17          4.9160    -1.1760    -5.2600 cp         1 U91      -0.063000
     18 C18          5.7070    -1.1790    -6.5150 cp         1 U91      -0.056000
     19 C19          5.6780    -2.2890    -7.3580 ca         1 U91      -0.095500
     20 C20          6.4760    -0.0690    -6.8600 ca         1 U91      -0.095500
     21 C21          6.4150    -2.2850    -8.5240 ca         1 U91      -0.129500
     22 C22          7.2090    -0.0770    -8.0290 ca         1 U91      -0.129500
     23 C23          7.1830    -1.1840    -8.8580 ca         1 U91      -0.114000
     24 F24          1.4380    -1.2400    -4.1900 f          1 U91      -0.109900
     25 F25          2.8900    -1.2440    -6.5050 f          1 U91      -0.109900
     26 F26          6.9150    -1.0970    -3.9720 f          1 U91      -0.109900
     27 F27          5.4540    -1.0930    -1.6610 f          1 U91      -0.109900
     28 H2           1.1310     0.9130     3.9170 h1         1 U91       0.058700
     29 H3          -0.3320    -0.0820     3.8900 h1         1 U91       0.058700
     30 H4           1.2610    -0.8510     3.9180 h1         1 U91       0.058700
     31 H5           3.3090     0.5590     2.7390 hc         1 U91       0.061367
     32 H6           3.5690    -1.0210     1.9870 hc         1 U91       0.061367
     33 H7           3.8880     0.4580     1.0710 hc         1 U91       0.061367
     34 H8           2.4610    -2.0330    -1.2790 hn         1 U91       0.337500
     35 H9           5.0780    -3.1530    -7.0980 ha         1 U91       0.138000
     36 H10          6.4980     0.7990    -6.2110 ha         1 U91       0.138000
     37 H11          6.3960    -3.1490    -9.1780 ha         1 U91       0.134500
     38 H12          7.8100     0.7850    -8.2960 ha         1 U91       0.134500
     39 H13          7.7600    -1.1860    -9.7750 ha         1 U91       0.132000
     40 H1          -1.6640     0.2950    -0.8570 ho         1 U91       0.436000
@<TRIPOS>BOND
     1    26    16 1
     2    22    20 ar
     3    22    23 ar
     4    20    18 ar
     5    27    14 1
     6     8     4 1
     7    23    21 ar
     8    10     9 2
     9    16    14 ar
    10    16    17 ar
    11    14    12 ar
    12    18    17 1
    13    18    19 ar
    14    17    15 ar
    15     9     2 1
    16     9    11 1
    17    21    19 ar
    18     4     2 2
    19     4     5 1
    20    12    11 1
    21    12    13 ar
    22     2     1 1
    23     6     5 1
    24    15    13 ar
    25    15    25 1
    26     5     3 1
    27    13    24 1
    28     1     3 2
    29     1     7 1
    30     6    28 1
    31     6    29 1
    32     6    30 1
    33     8    31 1
    34     8    32 1
    35     8    33 1
    36    11    34 1
    37    19    35 1
    38    20    36 1
    39    21    37 1
    40    22    38 1
    41    23    39 1
    42     7    40 1
@<TRIPOS>SUBSTRUCTURE
     1 U91         1 TEMP              0 ****  ****    0 ROOT
