@<TRIPOS>MOLECULE
molecule
   49    50     1     0     0
SMALL
bcc


@<TRIPOS>ATOM
      1 O1           0.0000     0.0000     0.0000 o          1 U94      -0.845800
      2 C2           1.3420     0.0000     0.0000 c          1 U94       0.866600
      3 C3           2.0960     0.0000     1.3040 c3         1 U94       0.036100
      4 O4           1.9470    -0.0010    -1.0470 o          1 U94      -0.845800
      5 C5           1.8230    -1.3080     2.0510 c3         1 U94       0.161100
      6 C6           2.6840    -1.3630     3.3150 c3         1 U94       0.112700
      7 C7           2.4100    -2.6690     4.0620 c3         1 U94      -0.059100
      8 O8           3.4960     0.1160     1.0450 oh         1 U94      -0.599800
      9 O9           2.1450    -2.4150     1.2070 oh         1 U94      -0.592800
     10 N10          2.3530    -0.2280     4.1810 ns         1 U94      -0.586900
     11 C11          2.9480     0.9650     3.9830 c          1 U94       0.642100
     12 O12          3.7570     1.0990     3.0900 o          1 U94      -0.522100
     13 C13          2.6090     2.1340     4.8740 c3         1 U94       0.060400
     14 O14          3.3630     3.2770     4.4680 os         1 U94      -0.386600
     15 C15          3.1150     4.4460     5.2520 c3         1 U94       0.128700
     16 C16          3.3450    -2.7800     5.2390 ca         1 U94      -0.047300
     17 C17          4.5770    -3.3890     5.0850 ca         1 U94      -0.124000
     18 C18          5.4370    -3.4930     6.1590 ca         1 U94      -0.110500
     19 C19          5.0610    -2.9850     7.4010 cp         1 U94      -0.066000
     20 C20          3.8190    -2.3730     7.5500 ca         1 U94      -0.110500
     21 C21          2.9690    -2.2690     6.4680 ca         1 U94      -0.124000
     22 C22          5.9810    -3.0940     8.5600 cp         1 U94       0.007000
     23 C23          7.2270    -3.7010     8.4090 ca         1 U94      -0.120500
     24 C24          8.0790    -3.8020     9.4920 ca         1 U94       0.039400
     25 C25          7.7000    -3.3010    10.7240 ca         1 U94      -0.131000
     26 C26          6.4630    -2.6960    10.8790 ca         1 U94       0.039400
     27 C27          5.6050    -2.5860     9.8010 ca         1 U94      -0.120500
     28 Cl28         5.9940    -2.0690    12.4280 cl         1 U94      -0.109400
     29 Cl29         9.6320    -4.5580     9.3040 cl         1 U94      -0.109400
     30 H3           1.7700     0.8370     1.9100 h1         1 U94       0.024700
     31 H5           0.7760    -1.3550     2.3250 h1         1 U94       0.042700
     32 H6           3.7310    -1.3160     3.0410 h1         1 U94       0.111700
     33 H7           2.5690    -3.5070     3.3940 hc         1 U94       0.059200
     34 H7A          1.3850    -2.6770     4.4130 hc         1 U94       0.059200
     35 HO8          3.6390     0.7660     0.3770 ho         1 U94       0.409000
     36 HO9          1.3570    -2.8850     0.9910 ho         1 U94       0.398000
     37 HN10         1.6510    -0.3250     4.8880 hn         1 U94       0.294500
     38 H13          2.8520     1.8870     5.9000 h1         1 U94       0.031200
     39 H13A         1.5510     2.3530     4.7950 h1         1 U94       0.031200
     40 H15          3.7220     5.2640     4.8830 h1         1 U94       0.025033
     41 H15A         3.3670     4.2470     6.2870 h1         1 U94       0.025033
     42 H15B         2.0670     4.7120     5.1810 h1         1 U94       0.025033
     43 H17          4.8680    -3.7840     4.1190 ha         1 U94       0.137000
     44 H18          6.4020    -3.9700     6.0380 ha         1 U94       0.127000
     45 H20          3.5230    -1.9740     8.5130 ha         1 U94       0.127000
     46 H21          2.0030    -1.7930     6.5830 ha         1 U94       0.137000
     47 H23          7.5260    -4.0940     7.4450 ha         1 U94       0.153000
     48 H25          8.3700    -3.3830    11.5710 ha         1 U94       0.151000
     49 H27          4.6390    -2.1130     9.9240 ha         1 U94       0.153000
@<TRIPOS>BOND
     1     2     1 1
     2     3     2 1
     3     2     4 1
     4     8     3 1
     5     3     5 1
     6     3    30 1
     7     9     5 1
     8     5     6 1
     9     5    31 1
    10     7     6 1
    11     6    10 1
    12     6    32 1
    13     7    16 1
    14     7    33 1
    15     7    34 1
    16     8    35 1
    17     9    36 1
    18    10    11 1
    19    10    37 1
    20    12    11 2
    21    11    13 1
    22    13    14 1
    23    13    38 1
    24    13    39 1
    25    15    14 1
    26    15    40 1
    27    15    41 1
    28    15    42 1
    29    17    16 ar
    30    16    21 ar
    31    18    17 ar
    32    17    43 1
    33    18    19 ar
    34    18    44 1
    35    22    19 1
    36    19    20 ar
    37    20    21 ar
    38    20    45 1
    39    21    46 1
    40    23    22 ar
    41    22    27 ar
    42    24    23 ar
    43    23    47 1
    44    29    24 1
    45    24    25 ar
    46    25    26 ar
    47    25    48 1
    48    26    27 ar
    49    26    28 1
    50    27    49 1
@<TRIPOS>SUBSTRUCTURE
     1 U94         1 TEMP              0 ****  ****    0 ROOT
