@<TRIPOS>MOLECULE
U94
   49    50     1     0     0
SMALL
bcc


@<TRIPOS>ATOM
      1 O1           0.0000     0.0000     0.0000 o          1 U94      -0.894300
      2 C2           1.3420     0.0000     0.0000 c          1 U94       0.954600
      3 C3           2.0960     0.0000     1.3040 c3         1 U94       0.057100
      4 O4           1.9470    -0.0010    -1.0470 o          1 U94      -0.894300
      5 C5           1.8230    -1.3080     2.0510 c3         1 U94       0.196100
      6 C6           2.6840    -1.3630     3.3150 c3         1 U94       0.000700
      7 C7           2.4100    -2.6690     4.0620 c3         1 U94       0.006900
      8 O8           3.4960     0.1160     1.0450 oh         1 U94      -0.584800
      9 O9           2.1450    -2.4150     1.2070 oh         1 U94      -0.572800
     10 N10          2.3530    -0.2280     4.1810 ns         1 U94      -0.199900
     11 C11          2.9480     0.9650     3.9830 c          1 U94       0.542100
     12 O12          3.7570     1.0990     3.0900 o          1 U94      -0.562100
     13 C13          2.6090     2.1340     4.8740 c3         1 U94       0.138400
     14 O14          3.3630     3.2770     4.4680 os         1 U94      -0.370600
     15 C15          3.1150     4.4460     5.2520 c3         1 U94       0.247700
     16 C16          3.3450    -2.7800     5.2390 ca         1 U94      -0.057300
     17 C17          4.5770    -3.3890     5.0850 ca         1 U94      -0.097500
     18 C18          5.4370    -3.4930     6.1590 ca         1 U94      -0.090500
     19 C19          5.0610    -2.9850     7.4010 cp         1 U94      -0.066000
     20 C20          3.8190    -2.3730     7.5500 ca         1 U94      -0.090500
     21 C21          2.9690    -2.2690     6.4680 ca         1 U94      -0.097500
     22 C22          5.9810    -3.0940     8.5600 cp         1 U94       0.017000
     23 C23          7.2270    -3.7010     8.4090 ca         1 U94      -0.106500
     24 C24          8.0790    -3.8020     9.4920 ca         1 U94      -0.017600
     25 C25          7.7000    -3.3010    10.7240 ca         1 U94      -0.115000
     26 C26          6.4630    -2.6960    10.8790 ca         1 U94      -0.017600
     27 C27          5.6050    -2.5860     9.8010 ca         1 U94      -0.106500
     28 Cl28         5.9940    -2.0690    12.4280 cl         1 U94      -0.033400
     29 Cl29         9.6320    -4.5580     9.3040 cl         1 U94      -0.033400
     30 H3           1.7700     0.8370     1.9100 h1         1 U94       0.003700
     31 H5           0.7760    -1.3550     2.3250 h1         1 U94       0.010700
     32 H6           3.7310    -1.3160     3.0410 h1         1 U94       0.086700
     33 H7           2.5690    -3.5070     3.3940 hc         1 U94       0.029700
     34 H7A          1.3850    -2.6770     4.4130 hc         1 U94       0.029700
     35 HO8          3.6390     0.7660     0.3770 ho         1 U94       0.400000
     36 HO9          1.3570    -2.8850     0.9910 ho         1 U94       0.384000
     37 HN10         1.6510    -0.3250     4.8880 hn         1 U94       0.157500
     38 H13          2.8520     1.8870     5.9000 h1         1 U94      -0.005800
     39 H13A         1.5510     2.3530     4.7950 h1         1 U94      -0.005800
     40 H15          3.7220     5.2640     4.8830 h1         1 U94      -0.018633
     41 H15A         3.3670     4.2470     6.2870 h1         1 U94      -0.018633
     42 H15B         2.0670     4.7120     5.1810 h1         1 U94      -0.018633
     43 H17          4.8680    -3.7840     4.1190 ha         1 U94       0.111500
     44 H18          6.4020    -3.9700     6.0380 ha         1 U94       0.105500
     45 H20          3.5230    -1.9740     8.5130 ha         1 U94       0.105500
     46 H21          2.0030    -1.7930     6.5830 ha         1 U94       0.111500
     47 H23          7.5260    -4.0940     7.4450 ha         1 U94       0.128000
     48 H25          8.3700    -3.3830    11.5710 ha         1 U94       0.122000
     49 H27          4.6390    -2.1130     9.9240 ha         1 U94       0.128000
@<TRIPOS>BOND
     1     1     2 1   
     2     2     3 1   
     3     2     4 1   
     4     3     5 1   
     5     3     8 1   
     6     3    30 1   
     7     5     6 1   
     8     5     9 1   
     9     5    31 1   
    10     6     7 1   
    11     6    10 1   
    12     6    32 1   
    13     7    16 1   
    14     7    33 1   
    15     7    34 1   
    16     8    35 1   
    17     9    36 1   
    18    10    11 1   
    19    10    37 1   
    20    11    12 2   
    21    11    13 1   
    22    13    14 1   
    23    13    38 1   
    24    13    39 1   
    25    14    15 1   
    26    15    40 1   
    27    15    41 1   
    28    15    42 1   
    29    16    17 ar  
    30    16    21 ar  
    31    17    18 ar  
    32    17    43 1   
    33    18    19 ar  
    34    18    44 1   
    35    19    20 ar  
    36    19    22 1   
    37    20    21 ar  
    38    20    45 1   
    39    21    46 1   
    40    22    23 ar  
    41    22    27 ar  
    42    23    24 ar  
    43    23    47 1   
    44    24    25 ar  
    45    24    29 1   
    46    25    26 ar  
    47    25    48 1   
    48    26    27 ar  
    49    26    28 1   
    50    27    49 1   
@<TRIPOS>SUBSTRUCTURE
     1 U94         1 TEMP              0 ****  ****    0 ROOT
