@<TRIPOS>MOLECULE
molecule
   32    33     1     0     0
SMALL
bcc


@<TRIPOS>ATOM
      1 NAA          0.0000     0.0000     0.0000 nz         1 U98      -0.815500
      2 FAB         -0.6520    -4.9180     5.8640 f          1 U98      -0.214300
      3 OAC          2.0570     0.9980    -0.9290 o          1 U98      -0.519800
      4 SAD          1.6560     0.0000     0.0000 sy         1 U98       1.231200
      5 OAE          2.0580     0.0000     1.3630 o          1 U98      -0.519800
      6 FAF          0.8200    -6.6540     5.6550 f          1 U98      -0.214300
      7 CAH          0.5080    -5.1930     3.8110 ca         1 U98      -0.157300
      8 CAI          0.8850    -4.0110     3.2030 ca         1 U98      -0.097000
      9 CAJ          0.8280    -3.8940     1.8200 ca         1 U98       0.102600
     10 CAL          1.9010    -2.7320    -0.0050 ca         1 U98       0.779200
     11 CAM          2.1770    -1.5440    -0.6720 ca         1 U98      -0.521800
     12 CAN          2.8650    -1.5890    -1.8710 ca         1 U98       0.049000
     13 FAO          1.5950    -4.5090     5.8070 f          1 U98      -0.214300
     14 CAP          0.0790    -6.2600     3.0430 ca         1 U98      -0.070000
     15 CAQ          0.0210    -6.1470     1.6660 ca         1 U98      -0.114000
     16 CAR          0.3910    -4.9660     1.0530 ca         1 U98      -0.078000
     17 NAS          2.2950    -3.8930    -0.5060 nb         1 U98      -0.724000
     18 CAT          2.9530    -3.9680    -1.6470 ca         1 U98       0.559200
     19 CAU          3.2550    -2.8270    -2.3650 ca         1 U98      -0.299300
     20 HNAA        -0.3340     0.8900    -0.3130 hn         1 U98       0.494467
     21 HNAB        -0.3340    -0.1740     0.9270 hn         1 U98       0.494467
     22 HAI          1.2020    -3.1690     3.8060 ha         1 U98       0.155000
     23 HNAK         0.9630    -1.8220     1.6140 hn         1 U98       0.430800
     24 HAN          3.0910    -0.6800    -2.4160 ha         1 U98       0.176000
     25 HAP         -0.2100    -7.1880     3.5210 ha         1 U98       0.166000
     26 HAQ         -0.3080    -6.9880     1.0680 ha         1 U98       0.158000
     27 HAR         -0.0510    -4.7660     0.0850 ha         1 U98       0.133000
     28 HAT          3.2570    -4.9350    -2.0270 h4         1 U98       0.060100
     29 HAU          3.7960    -2.8980    -3.3010 ha         1 U98       0.177000
     30 HAA3        -0.3340    -0.7050    -0.6270 hn         1 U98       0.494467
     31 NAK          1.2110    -2.7000     1.2020 nu         1 U98      -0.777300
     32 CAG          0.5690    -5.3200     5.3110 c3         1 U98       0.677200
@<TRIPOS>BOND
     1     1     4 1
     2     2    32 1
     3     3     4 2
     4     4     5 2
     5     4    11 1
     6     6    32 1
     7    32     7 1
     8    32    13 1
     9     7     8 ar
    10     7    14 ar
    11     8     9 ar
    12     9    31 1
    13     9    16 ar
    14    31    10 1
    15    10    11 ar
    16    10    17 ar
    17    11    12 ar
    18    12    19 ar
    19    14    15 ar
    20    15    16 ar
    21    17    18 ar
    22    18    19 ar
    23     1    20 1
    24     1    21 1
    25     8    22 1
    26    31    23 1
    27    12    24 1
    28    14    25 1
    29    15    26 1
    30    16    27 1
    31    18    28 1
    32    19    29 1
    33    30     1 1
@<TRIPOS>SUBSTRUCTURE
     1 U98         1 TEMP              0 ****  ****    0 ROOT
