@<TRIPOS>MOLECULE
U98
   32    33     1     0     0
SMALL
bcc


@<TRIPOS>ATOM
      1 NAA          0.0000     0.0000     0.0000 nz         1 U98      -0.156500
      2 FAB         -0.6520    -4.9180     5.8640 f          1 U98      -0.200633
      3 OAC          2.0570     0.9980    -0.9290 o          1 U98      -0.493800
      4 SAD          1.6560     0.0000     0.0000 sy         1 U98       0.945200
      5 OAE          2.0580     0.0000     1.3630 o          1 U98      -0.493800
      6 FAF          0.8200    -6.6540     5.6550 f          1 U98      -0.200633
      7 CAH          0.5080    -5.1930     3.8110 ca         1 U98      -0.184300
      8 CAI          0.8850    -4.0110     3.2030 ca         1 U98      -0.050000
      9 CAJ          0.8280    -3.8940     1.8200 ca         1 U98      -0.059400
     10 CAL          1.9010    -2.7320    -0.0050 ca         1 U98       0.589200
     11 CAM          2.1770    -1.5440    -0.6720 ca         1 U98      -0.416800
     12 CAN          2.8650    -1.5890    -1.8710 ca         1 U98       0.099000
     13 FAO          1.5950    -4.5090     5.8070 f          1 U98      -0.200633
     14 CAP          0.0790    -6.2600     3.0430 ca         1 U98      -0.022000
     15 CAQ          0.0210    -6.1470     1.6660 ca         1 U98      -0.085000
     16 CAR          0.3910    -4.9660     1.0530 ca         1 U98      -0.041000
     17 NAS          2.2950    -3.8930    -0.5060 nb         1 U98      -0.622000
     18 CAT          2.9530    -3.9680    -1.6470 ca         1 U98       0.551200
     19 CAU          3.2550    -2.8270    -2.3650 ca         1 U98      -0.279300
     20 HNAA        -0.3340     0.8900    -0.3130 hn         1 U98       0.319467
     21 HNAB        -0.3340    -0.1740     0.9270 hn         1 U98       0.319467
     22 HAI          1.2020    -3.1690     3.8060 ha         1 U98       0.127000
     23 HNAK         0.9630    -1.8220     1.6140 hn         1 U98       0.273800
     24 HAN          3.0910    -0.6800    -2.4160 ha         1 U98       0.139000
     25 HAP         -0.2100    -7.1880     3.5210 ha         1 U98       0.132000
     26 HAQ         -0.3080    -6.9880     1.0680 ha         1 U98       0.124000
     27 HAR         -0.0510    -4.7660     0.0850 ha         1 U98       0.103000
     28 HAT          3.2570    -4.9350    -2.0270 h4         1 U98       0.000100
     29 HAU          3.7960    -2.8980    -3.3010 ha         1 U98       0.145000
     30 HAA3        -0.3340    -0.7050    -0.6270 hn         1 U98       0.319467
     31 NAK          1.2110    -2.7000     1.2020 nu         1 U98      -0.322300
     32 CAG          0.5690    -5.3200     5.3110 c3         1 U98       0.642200
@<TRIPOS>BOND
     1     1     4 1   
     2     1    20 1   
     3     1    21 1   
     4     1    30 1   
     5     2    32 1   
     6     3     4 2   
     7     4     5 2   
     8     4    11 1   
     9     6    32 1   
    10     7     8 ar  
    11     7    14 ar  
    12     7    32 1   
    13     8     9 ar  
    14     8    22 1   
    15     9    16 ar  
    16     9    31 1   
    17    10    11 ar  
    18    10    17 ar  
    19    10    31 1   
    20    11    12 ar  
    21    12    19 ar  
    22    12    24 1   
    23    13    32 1   
    24    14    15 ar  
    25    14    25 1   
    26    15    16 ar  
    27    15    26 1   
    28    16    27 1   
    29    17    18 ar  
    30    18    19 ar  
    31    18    28 1   
    32    19    29 1   
    33    23    31 1   
@<TRIPOS>SUBSTRUCTURE
     1 U98         1 TEMP              0 ****  ****    0 ROOT
