@<TRIPOS>MOLECULE
molecule
   68    69     1     0     0
SMALL
bcc


@<TRIPOS>ATOM
      1 O50          0.0000     0.0000     0.0000 o          1 UA1      -0.513000
      2 C49          1.2260     0.0000     0.0000 c          1 UA1       0.745100
      3 O51          2.0030     0.0000     1.1250 os         1 UA1      -0.449900
      4 C52          1.2960     0.0020     2.3710 c3         1 UA1       0.164800
      5 C55          0.4250    -1.2510     2.4380 c3         1 UA1      -0.110433
      6 C54          2.3360    -0.0040     3.4890 c3         1 UA1      -0.110433
      7 C53          0.4390     1.2660     2.4420 c3         1 UA1      -0.110433
      8 N32          2.0300    -0.0030    -1.1230 ns         1 UA1      -0.580900
      9 C31          1.5240    -0.0040    -2.4720 c3         1 UA1       0.069700
     10 C34          2.4950     0.6590    -3.4550 c3         1 UA1      -0.045100
     11 C37          2.4300     2.1670    -3.4120 ca         1 UA1      -0.089300
     12 C39          1.5450     2.8330    -4.2460 ca         1 UA1      -0.104500
     13 C42          1.4850     4.2260    -4.2060 ca         1 UA1      -0.150000
     14 C38          2.3110     4.9350    -3.3330 ca         1 UA1       0.097100
     15 O47          2.2520     6.2940    -3.2950 oh         1 UA1      -0.522100
     16 C41          3.1960     4.2510    -2.5000 ca         1 UA1      -0.150000
     17 C40          3.2560     2.8580    -2.5400 ca         1 UA1      -0.104500
     18 C28          1.2860    -1.4590    -2.8630 c          1 UA1       0.660100
     19 O30          2.0040    -2.3800    -2.4800 o          1 UA1      -0.588100
     20 N19          0.1490    -1.6110    -3.6480 ns         1 UA1      -0.567900
     21 C11         -0.3300    -2.8880    -4.1130 c3         1 UA1       0.047700
     22 C20          0.3940    -3.1920    -5.4200 c          1 UA1       0.652100
     23 N22          0.7000    -4.5400    -5.5420 ns         1 UA1      -0.599900
     24 C23          1.4270    -5.0910    -6.6640 c3         1 UA1       0.101300
     25 O21          0.6990    -2.3230    -6.2340 o          1 UA1      -0.601100
     26 C66         -1.8480    -2.8930    -4.3300 c3         1 UA1      -0.032100
     27 C7          -2.6180    -2.5670    -3.0750 ca         1 UA1      -0.119300
     28 C4          -3.0010    -3.5950    -2.2270 ca         1 UA1      -0.129500
     29 C2          -3.7140    -3.2940    -1.0660 ca         1 UA1      -0.111500
     30 C3          -2.9280    -1.2460    -2.7910 ca         1 UA1      -0.129500
     31 C6          -3.6410    -0.9450    -1.6300 ca         1 UA1      -0.111500
     32 C5          -4.0330    -1.9690    -0.7680 ca         1 UA1       0.185600
     33 N9          -4.7620    -1.6600     0.4210 nu         1 UA1      -0.770500
     34 S14         -3.8640    -0.9540     1.7230 s6         1 UA1       1.236700
     35 O15         -3.0190    -2.1980     2.3550 o          1 UA1      -0.663200
     36 O16         -2.9110    -0.0070     1.1740 o          1 UA1      -0.663200
     37 O17         -4.8110    -0.5240     2.7360 o          1 UA1      -0.663200
     38 H551         0.0880    -1.4020     3.4560 hc         1 UA1       0.052700
     39 H552        -0.4320    -1.1300     1.7870 hc         1 UA1       0.052700
     40 H553         1.0030    -2.1100     2.1170 hc         1 UA1       0.052700
     41 H541         1.8330    -0.0000     4.4490 hc         1 UA1       0.052700
     42 H542         2.9620     0.8760     3.4060 hc         1 UA1       0.052700
     43 H543         2.9490    -0.8930     3.4070 hc         1 UA1       0.052700
     44 H531         1.0300     2.1210     2.1360 hc         1 UA1       0.052700
     45 H532        -0.4140     1.1610     1.7820 hc         1 UA1       0.052700
     46 H533         0.0940     1.4110     3.4580 hc         1 UA1       0.052700
     47 HN32         3.0230    -0.0050    -0.9920 hn         1 UA1       0.319500
     48 H31          0.5800     0.5270    -2.4950 h1         1 UA1       0.091700
     49 H341         2.2560     0.3280    -4.4590 hc         1 UA1       0.062700
     50 H342         3.5040     0.3460    -3.2150 hc         1 UA1       0.062700
     51 H39          0.9060     2.2770    -4.9220 ha         1 UA1       0.138000
     52 H42          0.7970     4.7570    -4.8520 ha         1 UA1       0.137000
     53 HO47         2.8660     6.6520    -3.9150 ho         1 UA1       0.411000
     54 H41          3.8370     4.8010    -1.8220 ha         1 UA1       0.137000
     55 H40          3.9410     2.3220    -1.8950 ha         1 UA1       0.138000
     56 HN19        -0.3640    -0.7910    -3.9040 hn         1 UA1       0.324500
     57 H11         -0.0750    -3.6470    -3.3840 h1         1 UA1       0.086700
     58 HN22         0.4020    -5.1630    -4.8180 hn         1 UA1       0.317500
     59 H231         0.8970    -4.8700    -7.5820 h1         1 UA1       0.033367
     60 H232         2.4170    -4.6510    -6.7030 h1         1 UA1       0.033367
     61 H233         1.5140    -6.1640    -6.5460 h1         1 UA1       0.033367
     62 H661        -2.1470    -3.8740    -4.6790 hc         1 UA1       0.047700
     63 H662        -2.0940    -2.1610    -5.0900 hc         1 UA1       0.047700
     64 H4          -2.7500    -4.6210    -2.4640 ha         1 UA1       0.112000
     65 H2          -4.0190    -4.0890    -0.3960 ha         1 UA1       0.146500
     66 H3          -2.6210    -0.4550    -3.4650 ha         1 UA1       0.112000
     67 H6          -3.8890     0.0830    -1.3980 ha         1 UA1       0.146500
     68 HN9         -5.7570    -1.5550     0.3850 hn         1 UA1       0.415800
@<TRIPOS>BOND
     1     1     2 2
     2     2     3 1
     3     2     8 1
     4     3     4 1
     5     4     6 1
     6     4     5 1
     7     4     7 1
     8     5    38 1
     9     5    39 1
    10     5    40 1
    11     6    41 1
    12     6    42 1
    13     6    43 1
    14     7    44 1
    15     7    45 1
    16     7    46 1
    17     8     9 1
    18     8    47 1
    19     9    10 1
    20     9    18 1
    21     9    48 1
    22    10    11 1
    23    10    49 1
    24    10    50 1
    25    11    12 ar
    26    11    17 ar
    27    12    13 ar
    28    12    51 1
    29    13    14 ar
    30    13    52 1
    31    14    15 1
    32    14    16 ar
    33    15    53 1
    34    16    17 ar
    35    16    54 1
    36    17    55 1
    37    18    20 1
    38    18    19 2
    39    20    21 1
    40    20    56 1
    41    21    26 1
    42    21    22 1
    43    21    57 1
    44    22    25 2
    45    22    23 1
    46    23    24 1
    47    23    58 1
    48    24    59 1
    49    24    60 1
    50    24    61 1
    51    26    27 1
    52    26    62 1
    53    26    63 1
    54    27    28 ar
    55    27    30 ar
    56    28    29 ar
    57    28    64 1
    58    29    32 ar
    59    29    65 1
    60    30    31 ar
    61    30    66 1
    62    31    32 ar
    63    31    67 1
    64    32    33 1
    65    33    34 1
    66    33    68 1
    67    34    36 1
    68    34    37 1
    69    34    35 1
@<TRIPOS>SUBSTRUCTURE
     1 UA1         1 TEMP              0 ****  ****    0 ROOT
