@<TRIPOS>MOLECULE
UA2
   34    36     1     0     0
SMALL
bcc


@<TRIPOS>ATOM
      1 C2           0.0000     0.0000     0.0000 ca         1 UA2       0.592900
      2 C4           1.9910     0.0000     1.1520 ca         1 UA2       0.411100
      3 C5           1.2780     0.0010     2.3640 ca         1 UA2      -0.476800
      4 C6          -0.1200    -0.0000     2.3070 ca         1 UA2       0.533200
      5 O5'          8.6250    -1.3860     1.4620 oh         1 UA2      -0.574800
      6 C5'          8.2020    -0.0360     1.2700 c3         1 UA2       0.228400
      7 C4'          6.9160    -0.0160     0.4410 c3         1 UA2       0.089500
      8 N4'          5.7810    -0.5560     1.2330 n7         1 UA2      -0.566200
      9 C3'          6.5070     1.4360     0.1140 c3         1 UA2       0.131100
     10 O3'          6.9350     1.7870    -1.2030 oh         1 UA2      -0.545800
     11 C2'          4.9660     1.4470     0.1980 c3         1 UA2       0.145100
     12 O2'          4.4030     1.8070    -1.0650 oh         1 UA2      -0.539800
     13 C1'          4.5740     0.0010     0.5690 c3         1 UA2       0.203700
     14 C9           3.4030     0.0010     1.5170 cc         1 UA2      -0.260000
     15 N3           1.3150     0.0000     0.0000 nb         1 UA2      -0.558000
     16 N1          -0.7080    -0.0000     1.1150 nb         1 UA2      -0.625000
     17 C8           3.4640     0.0000     2.8620 cd         1 UA2      -0.264100
     18 N7           2.2030     0.0000     3.3820 na         1 UA2       0.395600
     19 N6          -0.8750     0.0000     3.4690 nv         1 UA2      -0.657500
     20 H2          -0.5220     0.0000    -0.9490 h5         1 UA2      -0.000900
     21 HO5'         9.5250    -1.3970     1.7430 ho         1 UA2       0.385000
     22 H5'1         8.9760     0.5140     0.7480 h1         1 UA2      -0.017300
     23 H5'2         8.0180     0.4260     2.2320 h1         1 UA2      -0.017300
     24 H4'          7.0400    -0.5860    -0.4720 h1         1 UA2       0.076700
     25 HN4'         5.8350    -0.2100     2.1710 hn         1 UA2       0.250800
     26 H3'          6.9260     2.1160     0.8460 h1         1 UA2      -0.001300
     27 HO3'         7.5010     2.5400    -1.1590 ho         1 UA2       0.379000
     28 H2'          4.6390     2.1330     0.9700 h1         1 UA2       0.003700
     29 HO2'         4.1050     2.7000    -1.0330 ho         1 UA2       0.381000
     30 H1'          4.3430    -0.5660    -0.3250 h1         1 UA2       0.078700
     31 H8           4.3770    -0.0010     3.4450 h4         1 UA2       0.148000
     32 HN7          1.9830    -0.0000     4.3590 hn         1 UA2       0.116700
     33 HN61        -1.1650     0.8670     3.8760 hn         1 UA2       0.276800
     34 HN62        -1.1530    -0.8660     3.8860 hn         1 UA2       0.276800
@<TRIPOS>BOND
     1     1    15 ar  
     2     1    16 ar  
     3     1    20 1   
     4     2     3 ar  
     5     2    14 1   
     6     2    15 ar  
     7     3     4 ar  
     8     3    18 1   
     9     4    16 ar  
    10     4    19 1   
    11     5     6 1   
    12     5    21 1   
    13     6     7 1   
    14     6    22 1   
    15     6    23 1   
    16     7     8 1   
    17     7     9 1   
    18     7    24 1   
    19     8    13 1   
    20     8    25 1   
    21     9    10 1   
    22     9    11 1   
    23     9    26 1   
    24    10    27 1   
    25    11    12 1   
    26    11    13 1   
    27    11    28 1   
    28    12    29 1   
    29    13    14 1   
    30    13    30 1   
    31    14    17 2   
    32    17    18 1   
    33    17    31 1   
    34    18    32 1   
    35    19    33 1   
    36    19    34 1   
@<TRIPOS>SUBSTRUCTURE
     1 UA2         1 TEMP              0 ****  ****    0 ROOT
