@<TRIPOS>MOLECULE
UA3
   32    30     1     0     0
SMALL
bcc


@<TRIPOS>ATOM
      1 N1         -0.8510    0.4910   -0.8730 n         1 UA3     -0.188600
      2 C2          0.5210    0.8740   -0.6030 c         1 UA3      0.726100
      3 O2          1.2150    1.5950   -1.3410 o         1 UA3     -0.573100
      4 N3          1.0940    0.4560    0.6250 n         1 UA3     -0.611500
      5 C4          0.4250   -0.3310    1.5630 c         1 UA3      0.666100
      6 O4          0.9830   -0.5720    2.6510 o         1 UA3     -0.630100
      7 C5         -0.9500   -0.8270    1.1890 c3        1 UA3     -0.255300
      8 C6         -1.5570   -0.2230   -0.0170 c1        1 UA3     -0.065100
      9 O5'        -4.1470   -0.5060    1.1400 oh        1 UA3     -0.862500
     10 C5'        -3.7420    1.9890   -1.5140 c2        1 UA3     -0.349000
     11 C4'        -2.7390    2.6030   -2.1450 c2        1 UA3      0.035100
     12 O4'        -1.5330    2.0560   -2.5270 os        1 UA3     -0.239200
     13 C3'        -1.6020   -1.5520   -3.5210 c2        1 UA3      0.276000
     14 O3'        -0.6810   -2.1850   -4.1680 os        1 UA3     -0.351500
     15 C2'        -1.5170   -0.2820   -3.0680 c1        1 UA3     -0.265800
     16 O2'        -0.7750   -3.7620   -0.1630 oh        1 UA3     -0.862500
     17 C1'        -1.3440    0.6960   -2.2360 c2        1 UA3      0.086600
     18 O3P         0.0530   -4.5540   -5.0290 o         1 UA3     -0.895167
     19 O1P        -2.4230   -3.9120   -4.7190 o         1 UA3     -0.895167
     20 O2P        -0.9350   -4.1480   -2.6890 o         1 UA3     -0.895167
     21 H3          2.0330    0.7350    0.8010 hn        1 UA3      0.319500
     22 H5         -0.8750   -1.9430    0.9520 hc        1 UA3      0.144700
     23 H6         -1.6440   -0.7080    2.0620 hc        1 UA3      0.144700
     24 H5'        -3.7490    0.2720    0.7340 ho        1 UA3      0.427750
     25 H51        -3.6670   -1.2270    0.7140 ho        1 UA3      0.427750
     26 H52        -3.6930    0.9250   -1.2400 ha        1 UA3      0.124500
     27 H4         -4.6660    2.5160   -1.2600 ha        1 UA3      0.124500
     28 H3'        -2.7420    3.6610   -2.4590 h4        1 UA3      0.121000
     29 H2'        -2.5740   -2.0920   -3.3740 h4        1 UA3      0.157000
     30 HB         -0.0670   -3.8460   -0.8160 ho        1 UA3      0.427750
     31 H1'        -1.5570   -3.8840   -0.7160 ho        1 UA3      0.427750
     32 P          -1.0340   -4.0000   -4.1800 p5        1 UA3      1.303900
@<TRIPOS>BOND
     1    1    2 1   
     2    1    8 3   
     3    1   17 1   
     4    2    3 2   
     5    2    4 1   
     6    4    5 1   
     7    4   21 1   
     8    5    6 2   
     9    5    7 1   
    10    7    8 1   
    11    7   22 1   
    12    7   23 1   
    13    9   24 1   
    14    9   25 1   
    15   10   11 2   
    16   10   26 1   
    17   10   27 1   
    18   11   12 1   
    19   11   28 1   
    20   12   17 1   
    21   13   14 1   
    22   13   15 2   
    23   13   29 1   
    24   14   32 1   
    25   15   17 2   
    26   16   30 1   
    27   16   31 1   
    28   18   32 1   
    29   19   32 1   
    30   20   32 1   
@<TRIPOS>SUBSTRUCTURE
     1 UA3         1 TEMP              0 ****  ****    0 ROOT
