@<TRIPOS>MOLECULE
molecule
   62    65     1     0     0
SMALL
bcc


@<TRIPOS>ATOM
      1 C5           0.0000     0.0000     0.0000 ca         1 UA4       0.897900
      2 C10         -1.4110    -1.4120     3.9270 c3         1 UA4      -0.080100
      3 C13          2.7420     1.2090     5.5800 ca         1 UA4      -0.122000
      4 C15          2.7370    -1.2230     5.6020 ca         1 UA4       0.024600
      5 C24          1.6140    -5.7010     4.9500 c3         1 UA4       0.140400
      6 C26          0.1850    -7.5050     4.4760 c3         1 UA4       0.125700
      7 C28          1.3330    -2.0790     9.3760 ca         1 UA4      -0.170000
      8 C31          0.1150     0.4160     9.6350 ca         1 UA4       0.163900
      9 C32          1.3810     0.3150     9.0580 ca         1 UA4      -0.170000
     10 C30         -0.5420    -0.7300    10.0810 ca         1 UA4      -0.211000
     11 C29          0.0670    -1.9780     9.9520 ca         1 UA4       0.163900
     12 F33         -0.5630    -3.0790    10.3810 f          1 UA4      -0.126400
     13 C27          1.9820    -0.9320     8.9330 ca         1 UA4      -0.057300
     14 C18          3.3780    -1.0440     8.2950 c3         1 UA4       0.125100
     15 C35          4.4180    -0.9290     9.4270 c3         1 UA4      -0.074100
     16 C19          3.6050    -2.3840     7.5670 c          1 UA4       0.701500
     17 O21          4.1070    -3.3510     8.1450 o          1 UA4      -0.595500
     18 N20          3.1150    -2.4240     6.2600 n          1 UA4      -0.378000
     19 O25          0.3110    -6.2420     5.1150 os         1 UA4      -0.417600
     20 C16          2.1380    -1.2090     4.3330 ca         1 UA4      -0.125000
     21 C14          3.0220    -0.0020     6.2160 ca         1 UA4       0.075100
     22 O17          3.6330     0.0730     7.4370 os         1 UA4      -0.302900
     23 C12          2.1410     1.2100     4.3240 ca         1 UA4      -0.115000
     24 C11          1.8360     0.0020     3.7030 cp         1 UA4      -0.003000
     25 C2           1.2000     0.0010     2.4040 cp         1 UA4      -0.292600
     26 C1          -0.1740     0.0010     2.2660 ca         1 UA4       0.467600
     27 C9          -1.0670    -0.0010     3.4650 c3         1 UA4      -0.145700
     28 C3           1.9160     0.0000     1.2230 ca         1 UA4       0.712200
     29 N7           3.3330     0.0010     1.2850 nv         1 UA4      -1.092500
     30 N4           1.3460     0.0000     0.0000 nb         1 UA4      -0.722000
     31 N6          -0.8090     0.0010     1.0750 nb         1 UA4      -0.709000
     32 N8          -0.6290    -0.0000    -1.2630 nv         1 UA4      -1.065500
     33 H101        -2.4650    -1.6010     3.7570 hc         1 UA4       0.040033
     34 H102        -1.1930    -1.5100     4.9830 hc         1 UA4       0.040033
     35 H103        -0.8220    -2.1290     3.3680 hc         1 UA4       0.040033
     36 H13          2.9820     2.1460     6.0680 ha         1 UA4       0.151000
     37 H221         3.2470    -3.5140     4.4960 h1         1 UA4       0.063200
     38 H222         3.8060    -4.3570     5.9390 h1         1 UA4       0.063200
     39 H241         1.8150    -5.5520     3.8960 h1         1 UA4       0.024200
     40 H242         2.3460    -6.3830     5.3660 h1         1 UA4       0.024200
     41 H261         0.5710    -7.4390     3.4660 h1         1 UA4       0.031033
     42 H262         0.7490    -8.2470     5.0290 h1         1 UA4       0.031033
     43 H263        -0.8590    -7.7930     4.4460 h1         1 UA4       0.031033
     44 H28          1.8090    -3.0470     9.2750 ha         1 UA4       0.163500
     45 H32          1.8930     1.2040     8.7110 ha         1 UA4       0.163500
     46 H30         -1.5260    -0.6510    10.5280 ha         1 UA4       0.162000
     47 H351         5.4130    -1.0550     9.0170 hc         1 UA4       0.060700
     48 H352         4.2320    -1.6970    10.1680 hc         1 UA4       0.060700
     49 H353         4.3400     0.0470     9.8910 hc         1 UA4       0.060700
     50 H231         1.4810    -4.5290     6.7290 hc         1 UA4       0.061700
     51 H232         0.9300    -3.7050     5.2720 hc         1 UA4       0.061700
     52 H16          1.8970    -2.1440     3.8430 ha         1 UA4       0.145000
     53 H12          1.9070     2.1480     3.8350 ha         1 UA4       0.144000
     54 H91         -1.9840     0.5220     3.2200 hc         1 UA4       0.062200
     55 H92         -0.5700     0.5220     4.2740 hc         1 UA4       0.062200
     56 HN71         3.8320     0.8680     1.3090 hn         1 UA4       0.439800
     57 HN72         3.8350    -0.8640     1.2510 hn         1 UA4       0.439800
     58 HN81        -1.1130     0.8160    -1.5820 hn         1 UA4       0.443300
     59 HN82        -0.6120    -0.8240    -1.8310 hn         1 UA4       0.443300
     60 C22          3.0470    -3.6920     5.5450 c3         1 UA4       0.102000
     61 F34         -0.4730     1.6140     9.7570 f          1 UA4      -0.126400
     62 C23          1.6870    -4.3650     5.6780 c3         1 UA4      -0.110400
@<TRIPOS>BOND
     1     1    32 1
     2     1    31 ar
     3     1    30 ar
     4     2    27 1
     5     2    33 1
     6     2    34 1
     7     2    35 1
     8     3    23 ar
     9     3    21 ar
    10     3    36 1
    11     4    20 ar
    12     4    18 1
    13     4    21 ar
    14    60    62 1
    15    60    18 1
    16    60    37 1
    17    60    38 1
    18     5    19 1
    19     5    62 1
    20     5    39 1
    21     5    40 1
    22     6    19 1
    23     6    41 1
    24     6    42 1
    25     6    43 1
    26     7    13 ar
    27     7    11 ar
    28     7    44 1
    29    61     8 1
    30     8     9 ar
    31     8    10 ar
    32     9    13 ar
    33     9    45 1
    34    10    11 ar
    35    10    46 1
    36    11    12 1
    37    13    14 1
    38    14    16 1
    39    14    22 1
    40    14    15 1
    41    15    47 1
    42    15    48 1
    43    15    49 1
    44    16    18 1
    45    16    17 2
    46    62    50 1
    47    62    51 1
    48    20    24 ar
    49    20    52 1
    50    21    22 1
    51    23    24 ar
    52    23    53 1
    53    24    25 1
    54    25    26 ar
    55    25    28 ar
    56    26    31 ar
    57    26    27 1
    58    27    54 1
    59    27    55 1
    60    28    30 ar
    61    28    29 1
    62    29    56 1
    63    29    57 1
    64    32    58 1
    65    32    59 1
@<TRIPOS>SUBSTRUCTURE
     1 UA4         1 TEMP              0 ****  ****    0 ROOT
