@<TRIPOS>MOLECULE
UA4
   62    65     1     0     0
SMALL
bcc


@<TRIPOS>ATOM
      1 C5           0.0000     0.0000     0.0000 ca         1 UA4       0.709900
      2 C10         -1.4110    -1.4120     3.9270 c3         1 UA4       0.015900
      3 C13          2.7420     1.2090     5.5800 ca         1 UA4      -0.102000
      4 C15          2.7370    -1.2230     5.6020 ca         1 UA4      -0.115400
      5 C24          1.6140    -5.7010     4.9500 c3         1 UA4       0.218400
      6 C26          0.1850    -7.5050     4.4760 c3         1 UA4       0.250700
      7 C28          1.3330    -2.0790     9.3760 ca         1 UA4      -0.136500
      8 C31          0.1150     0.4160     9.6350 ca         1 UA4       0.135400
      9 C32          1.3810     0.3150     9.0580 ca         1 UA4      -0.136500
     10 C30         -0.5420    -0.7300    10.0810 ca         1 UA4      -0.167000
     11 C29          0.0670    -1.9780     9.9520 ca         1 UA4       0.135400
     12 F33         -0.5630    -3.0790    10.3810 f          1 UA4      -0.116400
     13 C27          1.9820    -0.9320     8.9330 ca         1 UA4      -0.067300
     14 C18          3.3780    -1.0440     8.2950 c3         1 UA4       0.133100
     15 C35          4.4180    -0.9290     9.4270 c3         1 UA4       0.007900
     16 C19          3.6050    -2.3840     7.5670 c          1 UA4       0.616500
     17 O21          4.1070    -3.3510     8.1450 o          1 UA4      -0.628500
     18 N20          3.1150    -2.4240     6.2600 n          1 UA4       0.005000
     19 O25          0.3110    -6.2420     5.1150 os         1 UA4      -0.407600
     20 C16          2.1380    -1.2090     4.3330 ca         1 UA4      -0.099000
     21 C14          3.0220    -0.0020     6.2160 ca         1 UA4       0.089100
     22 O17          3.6330     0.0730     7.4370 os         1 UA4      -0.279900
     23 C12          2.1410     1.2100     4.3240 ca         1 UA4      -0.081000
     24 C11          1.8360     0.0020     3.7030 cp         1 UA4      -0.003000
     25 C2           1.2000     0.0010     2.4040 cp         1 UA4      -0.273600
     26 C1          -0.1740     0.0010     2.2660 ca         1 UA4       0.437600
     27 C9          -1.0670    -0.0010     3.4650 c3         1 UA4      -0.100700
     28 C3           1.9160     0.0000     1.2230 ca         1 UA4       0.551200
     29 N7           3.3330     0.0010     1.2850 nv         1 UA4      -0.676500
     30 N4           1.3460     0.0000     0.0000 nb         1 UA4      -0.635000
     31 N6          -0.8090     0.0010     1.0750 nb         1 UA4      -0.627000
     32 N8          -0.6290    -0.0000    -1.2630 nv         1 UA4      -0.637500
     33 H101        -2.4650    -1.6010     3.7570 hc         1 UA4       0.005367
     34 H102        -1.1930    -1.5100     4.9830 hc         1 UA4       0.005367
     35 H103        -0.8220    -2.1290     3.3680 hc         1 UA4       0.005367
     36 H13          2.9820     2.1460     6.0680 ha         1 UA4       0.121000
     37 H221         3.2470    -3.5140     4.4960 h1         1 UA4       0.037700
     38 H222         3.8060    -4.3570     5.9390 h1         1 UA4       0.037700
     39 H241         1.8150    -5.5520     3.8960 h1         1 UA4      -0.008300
     40 H242         2.3460    -6.3830     5.3660 h1         1 UA4      -0.008300
     41 H261         0.5710    -7.4390     3.4660 h1         1 UA4      -0.011967
     42 H262         0.7490    -8.2470     5.0290 h1         1 UA4      -0.011967
     43 H263        -0.8590    -7.7930     4.4460 h1         1 UA4      -0.011967
     44 H28          1.8090    -3.0470     9.2750 ha         1 UA4       0.139500
     45 H32          1.8930     1.2040     8.7110 ha         1 UA4       0.139500
     46 H30         -1.5260    -0.6510    10.5280 ha         1 UA4       0.136000
     47 H351         5.4130    -1.0550     9.0170 hc         1 UA4       0.024367
     48 H352         4.2320    -1.6970    10.1680 hc         1 UA4       0.024367
     49 H353         4.3400     0.0470     9.8910 hc         1 UA4       0.024367
     50 H231         1.4810    -4.5290     6.7290 hc         1 UA4       0.030700
     51 H232         0.9300    -3.7050     5.2720 hc         1 UA4       0.030700
     52 H16          1.8970    -2.1440     3.8430 ha         1 UA4       0.124000
     53 H12          1.9070     2.1480     3.8350 ha         1 UA4       0.114000
     54 H91         -1.9840     0.5220     3.2200 hc         1 UA4       0.031200
     55 H92         -0.5700     0.5220     4.2740 hc         1 UA4       0.031200
     56 HN71         3.8320     0.8680     1.3090 hn         1 UA4       0.282300
     57 HN72         3.8350    -0.8640     1.2510 hn         1 UA4       0.282300
     58 HN81        -1.1130     0.8160    -1.5820 hn         1 UA4       0.280800
     59 HN82        -0.6120    -0.8240    -1.8310 hn         1 UA4       0.280800
     60 C22          3.0470    -3.6920     5.5450 c3         1 UA4       0.030000
     61 F34         -0.4730     1.6140     9.7570 f          1 UA4      -0.116400
     62 C23          1.6870    -4.3650     5.6780 c3         1 UA4      -0.065400
@<TRIPOS>BOND
     1     1    30 ar  
     2     1    31 ar  
     3     1    32 1   
     4     2    27 1   
     5     2    33 1   
     6     2    34 1   
     7     2    35 1   
     8     3    21 ar  
     9     3    23 ar  
    10     3    36 1   
    11     4    18 1   
    12     4    20 ar  
    13     4    21 ar  
    14     5    19 1   
    15     5    39 1   
    16     5    40 1   
    17     5    62 1   
    18     6    19 1   
    19     6    41 1   
    20     6    42 1   
    21     6    43 1   
    22     7    11 ar  
    23     7    13 ar  
    24     7    44 1   
    25     8     9 ar  
    26     8    10 ar  
    27     8    61 1   
    28     9    13 ar  
    29     9    45 1   
    30    10    11 ar  
    31    10    46 1   
    32    11    12 1   
    33    13    14 1   
    34    14    15 1   
    35    14    16 1   
    36    14    22 1   
    37    15    47 1   
    38    15    48 1   
    39    15    49 1   
    40    16    17 2   
    41    16    18 1   
    42    18    60 1   
    43    20    24 ar  
    44    20    52 1   
    45    21    22 1   
    46    23    24 ar  
    47    23    53 1   
    48    24    25 1   
    49    25    26 ar  
    50    25    28 ar  
    51    26    27 1   
    52    26    31 ar  
    53    27    54 1   
    54    27    55 1   
    55    28    29 1   
    56    28    30 ar  
    57    29    56 1   
    58    29    57 1   
    59    32    58 1   
    60    32    59 1   
    61    37    60 1   
    62    38    60 1   
    63    50    62 1   
    64    51    62 1   
    65    60    62 1   
@<TRIPOS>SUBSTRUCTURE
     1 UA4         1 TEMP              0 ****  ****    0 ROOT
