@<TRIPOS>MOLECULE
molecule
   23    23     1     0     0
SMALL
bcc


@<TRIPOS>ATOM
      1 O3           0.0000     0.0000     0.0000 o          1 UA5      -0.665867
      2 S1           1.4520     0.0000     0.0000 s6         1 UA5       1.242700
      3 O1           2.1750     0.0000     1.2590 o          1 UA5      -0.665867
      4 O2           1.9470     1.3080    -0.8390 o          1 UA5      -0.665867
      5 N1           2.0100    -1.3490    -0.9330 nu         1 UA5      -0.763500
      6 C3           1.2830    -1.6480    -2.1250 ca         1 UA5       0.184600
      7 C6           1.8250    -1.3310    -3.3710 ca         1 UA5      -0.131500
      8 C2           1.1150    -1.6230    -4.5350 ca         1 UA5      -0.126500
      9 C5          -0.1360    -2.2320    -4.4550 ca         1 UA5      -0.121300
     10 C7          -0.8960    -2.5450    -5.7000 c3         1 UA5      -0.027100
     11 C8          -1.8060    -1.3960    -6.1290 c3         1 UA5      -0.085100
     12 C4          -0.6790    -2.5500    -3.2090 ca         1 UA5      -0.126500
     13 C1           0.0310    -2.2580    -2.0450 ca         1 UA5      -0.131500
     14 HN1          2.9480    -1.6800    -0.8230 hn         1 UA5       0.419800
     15 H6           2.7980    -0.8580    -3.4340 ha         1 UA5       0.141500
     16 H2           1.5360    -1.3770    -5.5030 ha         1 UA5       0.114000
     17 H71         -0.1920    -2.7510    -6.4970 hc         1 UA5       0.030200
     18 H72         -1.5010    -3.4270    -5.5290 hc         1 UA5       0.030200
     19 H81         -1.2090    -0.5120    -6.3130 hc         1 UA5       0.031367
     20 H82         -2.3320    -1.6720    -7.0350 hc         1 UA5       0.031367
     21 H83         -2.5230    -1.1910    -5.3430 hc         1 UA5       0.031367
     22 H4          -1.6510    -3.0230    -3.1470 ha         1 UA5       0.114000
     23 H1          -0.3900    -2.5040    -1.0780 ha         1 UA5       0.141500
@<TRIPOS>BOND
     1     1     2 1
     2     2     5 1
     3     2     3 1
     4     2     4 1
     5     5     6 1
     6     5    14 1
     7     6    13 ar
     8     6     7 ar
     9     7     8 ar
    10     7    15 1
    11     8     9 ar
    12     8    16 1
    13     9    12 ar
    14     9    10 1
    15    10    11 1
    16    10    17 1
    17    10    18 1
    18    11    19 1
    19    11    20 1
    20    11    21 1
    21    12    13 ar
    22    12    22 1
    23    13    23 1
@<TRIPOS>SUBSTRUCTURE
     1 UA5         1 TEMP              0 ****  ****    0 ROOT
