@<TRIPOS>MOLECULE
molecule
   17    17     1     0     0
SMALL
bcc


@<TRIPOS>ATOM
      1 O2           0.0000     0.0000     0.0000 o          1 UAA      -0.722500
      2 N3           2.2900     0.0000     0.0000 ns         1 UAA      -0.565500
      3 C4           3.5140     0.0000     0.6490 c          1 UAA       0.716700
      4 C5           3.4390     0.0000     2.1380 cc         1 UAA      -0.351200
      5 C6           2.2450     0.0010     2.7530 cd         1 UAA       0.131400
      6 C7           2.0950     0.0020     4.2410 c3         1 UAA      -0.164200
      7 C8           2.0350     1.3790     4.8300 c          1 UAA       0.895600
      8 O8A          2.0930     2.4300     4.2110 o          1 UAA      -0.827800
      9 O8B          1.9060     1.3020     6.1800 o          1 UAA      -0.827800
     10 O4           4.6010     0.0000     0.0780 o          1 UAA      -0.643500
     11 C2           1.1000     0.0000     0.6630 c          1 UAA       0.798500
     12 N1           1.0800     0.0020     2.0190 ns         1 UAA      -0.431100
     13 H3           2.2790    -0.0000    -1.0010 hn         1 UAA       0.336500
     14 H5           4.3490    -0.0050     2.7250 ha         1 UAA       0.174000
     15 H7C1         2.9360    -0.5250     4.6750 hc         1 UAA       0.060700
     16 H7C2         1.1840    -0.5260     4.4980 hc         1 UAA       0.060700
     17 H1           0.2000     0.0030     2.4970 hn         1 UAA       0.359500
@<TRIPOS>BOND
     1     1    11 2
     2     2     3 1
     3     2    11 1
     4     2    13 1
     5     3     4 1
     6     3    10 2
     7     4     5 2
     8     4    14 1
     9     5     6 1
    10     5    12 1
    11     6     7 1
    12     6    15 1
    13     6    16 1
    14     7     8 1
    15     7     9 1
    16    11    12 1
    17    12    17 1
@<TRIPOS>SUBSTRUCTURE
     1 UAA         1 TEMP              0 ****  ****    0 ROOT
