@<TRIPOS>MOLECULE
molecule
   22    22     1     0     0
SMALL
bcc


@<TRIPOS>ATOM
      1 C01          0.0000     0.0000     0.0000 c3         1 UAH      -0.120400
      2 C02          1.5070     0.0000     0.0000 ca         1 UAH       0.364600
      3 C03          2.1930     0.0000     1.2060 ca         1 UAH      -0.033200
      4 O04          1.5160    -0.0010     2.3850 oh         1 UAH      -0.535100
      5 C05          3.5840     0.0010     1.1910 ca         1 UAH      -0.138000
      6 C06          4.2290     0.0010    -0.0340 ca         1 UAH      -0.133600
      7 C07          5.7350     0.0020    -0.1030 c3         1 UAH       0.251700
      8 O08          6.2110    -1.3460    -0.1260 os         1 UAH      -0.565200
      9 P09          7.7740    -1.7220    -0.1970 p5         1 UAH       1.167900
     10 O10          8.4930    -1.0600     0.9140 o          1 UAH      -0.901500
     11 O11          7.9490    -3.3190    -0.0730 o          1 UAH      -0.901500
     12 O12          8.3830    -1.2230    -1.6020 o          1 UAH      -0.901500
     13 C13          3.4770     0.0020    -1.1940 ca         1 UAH       0.407200
     14 N14          2.1590    -0.0040    -1.1450 nb         1 UAH      -0.704000
     15 H1          -0.3610     0.0260    -1.0210 hc         1 UAH       0.032367
     16 H2          -0.3610     0.8710     0.5330 hc         1 UAH       0.032367
     17 H3          -0.3610    -0.8970     0.4880 hc         1 UAH       0.032367
     18 H4           1.7830    -0.7440     2.9000 ho         1 UAH       0.411000
     19 H5           4.1490     0.0010     2.1160 ha         1 UAH       0.151000
     20 H6           6.0550     0.5130    -1.0030 h1         1 UAH       0.023200
     21 H7           6.1360     0.5120     0.7650 h1         1 UAH       0.023200
     22 H10          3.9760    -0.0000    -2.1550 h4         1 UAH       0.037100
@<TRIPOS>BOND
     1    10     9 1
     2     9    11 1
     3     9    12 1
     4     9     8 1
     5     8     7 1
     6     4     3 1
     7     5     3 ar
     8     5     6 ar
     9     7     6 1
    10     3     2 ar
    11     6    13 ar
    12     2     1 1
    13     2    14 ar
    14    13    14 ar
    15     1    15 1
    16     1    16 1
    17     1    17 1
    18     4    18 1
    19     5    19 1
    20     7    20 1
    21     7    21 1
    22    13    22 1
@<TRIPOS>SUBSTRUCTURE
     1 UAH         1 TEMP              0 ****  ****    0 ROOT
