@<TRIPOS>MOLECULE
molecule
   61    62     1     0     0
SMALL
bcc


@<TRIPOS>ATOM
      1 CAO          0.0000     0.0000     0.0000 c3         1 UAM      -0.064100
      2 CAW          1.5060     0.0000     0.0000 ca         1 UAM      -0.038300
      3 CAM          2.1940     0.0000     1.1960 ca         1 UAM      -0.180000
      4 CAK          3.5790     0.0020     1.2060 ca         1 UAM      -0.052000
      5 CAL          4.2900     0.0040     0.0220 ca         1 UAM      -0.218000
      6 CAV          3.6160     0.0020    -1.1910 ca         1 UAM       0.209100
      7 OAH          4.3090     0.0040    -2.3580 oh         1 UAM      -0.463100
      8 CAX          2.2170    -0.0020    -1.2020 ca         1 UAM      -0.219600
      9 CAU          1.4790    -0.0130    -2.4820 c          1 UAM       0.739200
     10 OAG          2.0490    -0.1900    -3.5410 o          1 UAM      -0.511500
     11 OAR          0.1360     0.1810    -2.4260 os         1 UAM      -0.445900
     12 CBD         -0.5260    -0.5240    -1.3370 c3         1 UAM       0.146100
     13 CBC         -2.0350    -0.2830    -1.4200 c3         1 UAM       0.117700
     14 CAP         -2.5620    -0.8080    -2.7570 c3         1 UAM      -0.092400
     15 CAY         -4.0860    -0.6800    -2.7900 c3         1 UAM      -0.075700
     16 CAB         -4.6020    -1.0880    -4.1730 c3         1 UAM      -0.085100
     17 CAA         -4.6970    -1.5960    -1.7280 c3         1 UAM      -0.085100
     18 NAQ         -2.3070     1.1530    -1.3180 ns         1 UAM      -0.561900
     19 CAT         -3.5030     1.5830    -0.8680 c          1 UAM       0.618100
     20 OAF         -4.3530     0.7800    -0.5480 o          1 UAM      -0.532100
     21 CBA         -3.7830     3.0590    -0.7630 c3         1 UAM       0.075100
     22 OAI         -5.1430     3.2600    -0.3770 oh         1 UAM      -0.587800
     23 CBB         -2.8570     3.6800     0.2860 c3         1 UAM       0.128100
     24 OAJ         -1.5030     3.5950    -0.1620 oh         1 UAM      -0.589800
     25 CAZ         -3.2350     5.1480     0.4950 c3         1 UAM       0.092500
     26 NAD         -2.4290     5.7100     1.5860 nz         1 UAM      -0.820600
     27 CAN         -2.9670     5.9310    -0.7920 c3         1 UAM      -0.188400
     28 CAS         -3.4520     7.3480    -0.6280 c          1 UAM       0.490100
     29 OAE         -3.9610     7.6980     0.4150 o          1 UAM      -0.417100
     30 NAC         -3.3200     8.2270    -1.6410 nz         1 UAM      -0.683400
     31 H1          -0.3470     1.0180     0.1340 hc         1 UAM       0.055700
     32 H2          -0.3470    -0.6550     0.7900 hc         1 UAM       0.055700
     33 H3           1.6480    -0.0020     2.1320 ha         1 UAM       0.133000
     34 H4           4.1090     0.0040     2.1500 ha         1 UAM       0.148000
     35 H5           5.3730     0.0060     0.0410 ha         1 UAM       0.154000
     36 H6           5.1520    -0.3970    -2.2240 ho         1 UAM       0.438000
     37 H7          -0.3190    -1.5850    -1.4150 h1         1 UAM       0.090700
     38 H8          -2.5290    -0.8030    -0.6090 h1         1 UAM       0.100700
     39 H9          -2.1330    -0.2290    -3.5670 hc         1 UAM       0.069200
     40 H10         -2.2840    -1.8480    -2.8710 hc         1 UAM       0.069200
     41 H11         -4.3680     0.3460    -2.5880 hc         1 UAM       0.028700
     42 H12         -4.2630    -2.0910    -4.4030 hc         1 UAM       0.040200
     43 H13         -4.2220    -0.3990    -4.9170 hc         1 UAM       0.040200
     44 H14         -5.6850    -1.0620    -4.1760 hc         1 UAM       0.040200
     45 H15         -4.6820    -2.6200    -2.0820 hc         1 UAM       0.040200
     46 H16         -4.1220    -1.5220    -0.8130 hc         1 UAM       0.040200
     47 H17         -5.7200    -1.2960    -1.5370 hc         1 UAM       0.040200
     48 H18         -1.6120     1.8150    -1.6020 hn         1 UAM       0.327500
     49 H19         -3.6060     3.5300    -1.7230 h1         1 UAM       0.047700
     50 H20         -5.6920     3.2480    -1.1430 ho         1 UAM       0.449000
     51 H21         -2.9620     3.1440     1.2220 h1         1 UAM       0.105700
     52 H22         -0.9300     3.5110     0.5820 ho         1 UAM       0.431000
     53 H23         -4.2850     5.2190     0.7490 hx         1 UAM       0.166700
     54 H24         -2.2330     4.9950     2.2590 hn         1 UAM       0.468133
     55 H25         -2.9350     6.4530     2.0260 hn         1 UAM       0.468133
     56 H27         -1.9040     5.9350    -0.9980 hc         1 UAM       0.139700
     57 H28         -3.4930     5.4630    -1.6150 hc         1 UAM       0.139700
     58 H29         -3.6610     9.1230    -1.3520 hn         1 UAM       0.500133
     59 H30         -3.8470     7.9080    -2.4300 hn         1 UAM       0.500133
     60 HAD3        -1.5690     6.0650     1.2170 hn         1 UAM       0.468133
     61 HAC3        -2.3550     8.3010    -1.8950 hn         1 UAM       0.500133
@<TRIPOS>BOND
     1     5     4 ar
     2     5     6 ar
     3     4     3 ar
     4     7     6 1
     5     6     8 ar
     6     3     2 ar
     7    16    15 1
     8     8     2 ar
     9     8     9 1
    10     2     1 1
    11    10     9 2
    12     9    11 1
    13    12     1 1
    14    12    11 1
    15    12    13 1
    16    14    15 1
    17    14    13 1
    18    15    17 1
    19    13    18 1
    20    18    19 1
    21    20    19 2
    22    19    21 1
    23    21    22 1
    24    21    23 1
    25    24    23 1
    26    23    25 1
    27    25    27 1
    28    25    26 1
    29    27    28 1
    30    28    29 2
    31    28    30 1
    32     1    31 1
    33     1    32 1
    34     3    33 1
    35     4    34 1
    36     5    35 1
    37     7    36 1
    38    12    37 1
    39    13    38 1
    40    14    39 1
    41    14    40 1
    42    15    41 1
    43    16    42 1
    44    16    43 1
    45    16    44 1
    46    17    45 1
    47    17    46 1
    48    17    47 1
    49    18    48 1
    50    21    49 1
    51    22    50 1
    52    23    51 1
    53    24    52 1
    54    25    53 1
    55    26    54 1
    56    26    55 1
    57    27    56 1
    58    27    57 1
    59    30    58 1
    60    30    59 1
    61    60    26 1
    62    61    30 1
@<TRIPOS>SUBSTRUCTURE
     1 UAM         1 TEMP              0 ****  ****    0 ROOT
