@<TRIPOS>MOLECULE
UAM
   61    62     1     0     0
SMALL
bcc


@<TRIPOS>ATOM
      1 CAO          0.0000     0.0000     0.0000 c3         1 UAM      -0.002100
      2 CAW          1.5060     0.0000     0.0000 ca         1 UAM      -0.037300
      3 CAM          2.1940     0.0000     1.1960 ca         1 UAM      -0.164000
      4 CAK          3.5790     0.0020     1.2060 ca         1 UAM      -0.012000
      5 CAL          4.2900     0.0040     0.0220 ca         1 UAM      -0.204000
      6 CAV          3.6160     0.0020    -1.1910 ca         1 UAM       0.235100
      7 OAH          4.3090     0.0040    -2.3580 oh         1 UAM      -0.442100
      8 CAX          2.2170    -0.0020    -1.2020 ca         1 UAM      -0.241600
      9 CAU          1.4790    -0.0130    -2.4820 c          1 UAM       0.805200
     10 OAG          2.0490    -0.1900    -3.5410 o          1 UAM      -0.552500
     11 OAR          0.1360     0.1810    -2.4260 os         1 UAM      -0.432900
     12 CBD         -0.5260    -0.5240    -1.3370 c3         1 UAM       0.183100
     13 CBC         -2.0350    -0.2830    -1.4200 c3         1 UAM       0.001700
     14 CAP         -2.5620    -0.8080    -2.7570 c3         1 UAM      -0.041400
     15 CAY         -4.0860    -0.6800    -2.7900 c3         1 UAM      -0.064700
     16 CAB         -4.6020    -1.0880    -4.1730 c3         1 UAM       0.005900
     17 CAA         -4.6970    -1.5960    -1.7280 c3         1 UAM       0.005900
     18 NAQ         -2.3070     1.1530    -1.3180 ns         1 UAM      -0.165900
     19 CAT         -3.5030     1.5830    -0.8680 c          1 UAM       0.518100
     20 OAF         -4.3530     0.7800    -0.5480 o          1 UAM      -0.569100
     21 CBA         -3.7830     3.0590    -0.7630 c3         1 UAM       0.114100
     22 OAI         -5.1430     3.2600    -0.3770 oh         1 UAM      -0.568800
     23 CBB         -2.8570     3.6800     0.2860 c3         1 UAM       0.174100
     24 OAJ         -1.5030     3.5950    -0.1620 oh         1 UAM      -0.570800
     25 CAZ         -3.2350     5.1480     0.4950 c3         1 UAM      -0.094500
     26 NAD         -2.4290     5.7100     1.5860 nz         1 UAM       0.059400
     27 CAN         -2.9670     5.9310    -0.7920 c3         1 UAM      -0.113400
     28 CAS         -3.4520     7.3480    -0.6280 c          1 UAM       0.326100
     29 OAE         -3.9610     7.6980     0.4150 o          1 UAM      -0.422100
     30 NAC         -3.3200     8.2270    -1.6410 nz         1 UAM       0.209600
     31 H1          -0.3470     1.0180     0.1340 hc         1 UAM       0.022200
     32 H2          -0.3470    -0.6550     0.7900 hc         1 UAM       0.022200
     33 H3           1.6480    -0.0020     2.1320 ha         1 UAM       0.109000
     34 H4           4.1090     0.0040     2.1500 ha         1 UAM       0.112000
     35 H5           5.3730     0.0060     0.0410 ha         1 UAM       0.128000
     36 H6           5.1520    -0.3970    -2.2240 ho         1 UAM       0.416000
     37 H7          -0.3190    -1.5850    -1.4150 h1         1 UAM       0.053700
     38 H8          -2.5290    -0.8030    -0.6090 h1         1 UAM       0.081700
     39 H9          -2.1330    -0.2290    -3.5670 hc         1 UAM       0.040200
     40 H10         -2.2840    -1.8480    -2.8710 hc         1 UAM       0.040200
     41 H11         -4.3680     0.3460    -2.5880 hc         1 UAM       0.013700
     42 H12         -4.2630    -2.0910    -4.4030 hc         1 UAM       0.010200
     43 H13         -4.2220    -0.3990    -4.9170 hc         1 UAM       0.010200
     44 H14         -5.6850    -1.0620    -4.1760 hc         1 UAM       0.010200
     45 H15         -4.6820    -2.6200    -2.0820 hc         1 UAM       0.010200
     46 H16         -4.1220    -1.5220    -0.8130 hc         1 UAM       0.010200
     47 H17         -5.7200    -1.2960    -1.5370 hc         1 UAM       0.010200
     48 H18         -1.6120     1.8150    -1.6020 hn         1 UAM       0.187500
     49 H19         -3.6060     3.5300    -1.7230 h1         1 UAM       0.010700
     50 H20         -5.6920     3.2480    -1.1430 ho         1 UAM       0.433000
     51 H21         -2.9620     3.1440     1.2220 h1         1 UAM       0.063700
     52 H22         -0.9300     3.5110     0.5820 ho         1 UAM       0.416000
     53 H23         -4.2850     5.2190     0.7490 hx         1 UAM       0.139700
     54 H24         -2.2330     4.9950     2.2590 hn         1 UAM       0.238133
     55 H25         -2.9350     6.4530     2.0260 hn         1 UAM       0.238133
     56 H27         -1.9040     5.9350    -0.9980 hc         1 UAM       0.101200
     57 H28         -3.4930     5.4630    -1.6150 hc         1 UAM       0.101200
     58 H29         -3.6610     9.1230    -1.3520 hn         1 UAM       0.266133
     59 H30         -3.8470     7.9080    -2.4300 hn         1 UAM       0.266133
     60 HAD3        -1.5690     6.0650     1.2170 hn         1 UAM       0.238133
     61 HAC3        -2.3550     8.3010    -1.8950 hn         1 UAM       0.266133
@<TRIPOS>BOND
     1     1     2 1   
     2     1    12 1   
     3     1    31 1   
     4     1    32 1   
     5     2     3 ar  
     6     2     8 ar  
     7     3     4 ar  
     8     3    33 1   
     9     4     5 ar  
    10     4    34 1   
    11     5     6 ar  
    12     5    35 1   
    13     6     7 1   
    14     6     8 ar  
    15     7    36 1   
    16     8     9 1   
    17     9    10 2   
    18     9    11 1   
    19    11    12 1   
    20    12    13 1   
    21    12    37 1   
    22    13    14 1   
    23    13    18 1   
    24    13    38 1   
    25    14    15 1   
    26    14    39 1   
    27    14    40 1   
    28    15    16 1   
    29    15    17 1   
    30    15    41 1   
    31    16    42 1   
    32    16    43 1   
    33    16    44 1   
    34    17    45 1   
    35    17    46 1   
    36    17    47 1   
    37    18    19 1   
    38    18    48 1   
    39    19    20 2   
    40    19    21 1   
    41    21    22 1   
    42    21    23 1   
    43    21    49 1   
    44    22    50 1   
    45    23    24 1   
    46    23    25 1   
    47    23    51 1   
    48    24    52 1   
    49    25    26 1   
    50    25    27 1   
    51    25    53 1   
    52    26    54 1   
    53    26    55 1   
    54    26    60 1   
    55    27    28 1   
    56    27    56 1   
    57    27    57 1   
    58    28    29 2   
    59    28    30 1   
    60    30    58 1   
    61    30    59 1   
    62    30    61 1   
@<TRIPOS>SUBSTRUCTURE
     1 UAM         1 TEMP              0 ****  ****    0 ROOT
