@<TRIPOS>MOLECULE
molecule
   22    23     1     0     0
SMALL
bcc


@<TRIPOS>ATOM
      1 O            0.0000     0.0000     0.0000 o          1 UAN      -0.611500
      2 C2           1.2190     0.0000     0.0000 c          1 UAN       0.642000
      3 N1           1.9120     0.0000     1.1600 ns         1 UAN      -0.488400
      4 C3           1.9440    -0.0050    -1.2150 cc         1 UAN       0.174800
      5 N4           1.5920    -0.0120    -2.5240 nc         1 UAN      -0.619000
      6 C5           2.6660    -0.0150    -3.2580 cd         1 UAN       0.399400
      7 N3           3.7720    -0.0120    -2.4600 na         1 UAN      -0.190900
      8 C6           5.1670    -0.0140    -2.9110 c3         1 UAN       0.039600
      9 C4           3.3420    -0.0050    -1.1610 cd         1 UAN       0.124800
     10 N2           3.9590    -0.0000     0.0270 nd         1 UAN      -0.733100
     11 C1           3.2740    -0.0000     1.1480 cc         1 UAN       0.739800
     12 N            3.9510     0.0010     2.3420 nu         1 UAN      -0.877200
     13 C            5.4160     0.0010     2.3540 c3         1 UAN       0.242100
     14 H1           1.4210     0.0000     2.0320 hn         1 UAN       0.333500
     15 H5           2.6800    -0.0200    -4.3410 h5         1 UAN       0.070100
     16 H61C         5.6650    -0.9010    -2.5380 h1         1 UAN       0.055367
     17 H62C         5.6700     0.8680    -2.5340 h1         1 UAN       0.055367
     18 H63C         5.1960    -0.0120    -3.9940 h1         1 UAN       0.055367
     19 H            3.4440     0.0010     3.2050 hn         1 UAN       0.447800
     20 HC1          5.7690     0.0040     3.3780 h1         1 UAN       0.046367
     21 HC2          5.7820    -0.8850     1.8490 h1         1 UAN       0.046367
     22 HC3          5.7820     0.8840     1.8440 h1         1 UAN       0.046367
@<TRIPOS>BOND
     1     1     2 2
     2     2     3 1
     3     2     4 1
     4     3    11 1
     5     4     5 1
     6     4     9 2
     7     5     6 2
     8     6     7 1
     9     7     8 1
    10     7     9 1
    11     9    10 1
    12    10    11 2
    13    11    12 1
    14    12    13 1
    15     3    14 1
    16     6    15 1
    17     8    16 1
    18     8    17 1
    19     8    18 1
    20    12    19 1
    21    13    20 1
    22    13    21 1
    23    13    22 1
@<TRIPOS>SUBSTRUCTURE
     1 UAN         1 TEMP              0 ****  ****    0 ROOT
