@<TRIPOS>MOLECULE
molecule
   22    22     1     0     0
SMALL
bcc


@<TRIPOS>ATOM
      1 S            0.0000     0.0000     0.0000 s6         1 UAP       1.565300
      2 C1           2.4280    -1.4390     1.7280 c3         1 UAP       0.316900
      3 O1           1.2400    -2.2320     1.6910 oh         1 UAP      -0.511800
      4 C2           2.1030     0.0000     1.3060 c3         1 UAP       0.175100
      5 O2           1.5230     0.0000     0.0000 os         1 UAP      -0.603500
      6 C3           3.4090     0.8030     1.2910 c3         1 UAP       0.198300
      7 O3           3.1100     2.1970     1.1970 oh         1 UAP      -0.582800
      8 C4           4.1740     0.5370     2.5590 c2         1 UAP      -0.359200
      9 C5           3.9190    -0.5050     3.3350 ce         1 UAP       0.086900
     10 O5           2.9490    -1.4110     3.0600 os         1 UAP      -0.326900
     11 C6           4.7260    -0.6880     4.5530 c          1 UAP       0.895800
     12 O1S         -0.4500     1.4040     0.3760 o          1 UAP      -0.740533
     13 O2S         -0.4010    -0.2030    -1.3480 o          1 UAP      -0.740533
     14 O3S         -0.4020    -0.8490     1.0660 o          1 UAP      -0.740533
     15 O61          4.4920    -1.7390     5.3650 o          1 UAP      -0.835800
     16 O62          5.6030     0.1070     4.8270 o          1 UAP      -0.835800
     17 H1           3.1700    -1.8550     1.0570 h2         1 UAP       0.012700
     18 H2           1.4140     0.4400     2.0170 h1         1 UAP       0.110700
     19 H3           4.0070     0.4990     0.4400 h1         1 UAP       0.019700
     20 HO3          3.7720     2.6260     0.6800 ho         1 UAP       0.376000
     21 H4           4.9620     1.2230     2.8470 ha         1 UAP       0.151000
     22 HO1          1.4720    -3.1430     1.6150 ho         1 UAP       0.370000
@<TRIPOS>BOND
     1     5     1 1
     2     1    13 1
     3     1    14 1
     4     1    12 1
     5    10     2 1
     6     3     2 1
     7     2     4 1
     8     2    17 1
     9     3    22 1
    10     6     4 1
    11     4     5 1
    12     4    18 1
    13     8     6 1
    14     7     6 1
    15     6    19 1
    16     7    20 1
    17     9     8 2
    18     8    21 1
    19    11     9 1
    20     9    10 1
    21    16    11 1
    22    15    11 1
@<TRIPOS>SUBSTRUCTURE
     1 UAP         1 TEMP              0 ****  ****    0 ROOT
