@<TRIPOS>MOLECULE
UAP
   22    22     1     0     0
SMALL
bcc


@<TRIPOS>ATOM
      1 S           0.1530    0.3880   -0.5790 s6        1 UAP      1.702300
      2 C1          2.4890   -1.6100    1.8300 c3        1 UAP      0.329900
      3 O1          1.7660   -2.0840    2.9470 oh        1 UAP     -0.654800
      4 C2          1.9910   -0.2080    1.3950 c3        1 UAP      0.154100
      5 O2          1.5880   -0.3100    0.0610 os        1 UAP     -0.621500
      6 C3          3.0930    0.8750    1.5130 c3        1 UAP      0.170300
      7 O3          2.5220    2.1640    1.7020 oh        1 UAP     -0.640800
      8 C4          4.0080    0.6030    2.6560 c2        1 UAP     -0.270200
      9 C5          4.3320   -0.6610    2.9770 ce        1 UAP      0.016900
     10 O5          3.8530   -1.7190    2.2120 os        1 UAP     -0.363900
     11 C6          5.1480   -1.1110    4.1820 c         1 UAP      0.926800
     12 O1S         0.3730    1.7510   -0.3430 o         1 UAP     -0.760200
     13 O2S         0.2210   -0.0080   -1.9150 o         1 UAP     -0.760200
     14 O3S        -0.8790   -0.1740    0.1670 o         1 UAP     -0.760200
     15 O61         4.5280   -1.7830    5.0560 o         1 UAP     -0.834300
     16 O62         6.3590   -0.7730    4.2660 o         1 UAP     -0.834300
     17 H1          2.3480   -2.3510    0.9950 h2        1 UAP      0.088700
     18 H2          1.1150    0.0770    2.0450 h1        1 UAP      0.055700
     19 H3          3.6800    0.8800    0.5470 h1        1 UAP      0.039700
     20 HO3         1.8500    2.2730    1.0100 ho        1 UAP      0.437000
     21 H4          4.3890    1.4640    3.2150 ha        1 UAP      0.139000
     22 HO1         2.2950   -1.9130    3.7440 ho        1 UAP      0.439000
@<TRIPOS>BOND
     1    1    5 1   
     2    1   12 1   
     3    1   13 1   
     4    1   14 1   
     5    2    3 1   
     6    2    4 1   
     7    2   10 1   
     8    2   17 1   
     9    3   22 1   
    10    4    5 1   
    11    4    6 1   
    12    4   18 1   
    13    6    7 1   
    14    6    8 1   
    15    6   19 1   
    16    7   20 1   
    17    8    9 2   
    18    8   21 1   
    19    9   10 1   
    20    9   11 1   
    21   11   15 1   
    22   11   16 1   
@<TRIPOS>SUBSTRUCTURE
     1 UAP         1 TEMP              0 ****  ****    0 ROOT
