@<TRIPOS>MOLECULE
molecule
   38    39     1     0     0
SMALL
bcc


@<TRIPOS>ATOM
      1 O23          0.0000     0.0000     0.0000 o          1 UB1      -0.809800
      2 C22          1.2160     0.0000     0.0000 c          1 UB1       0.899200
      3 O24          1.8910     0.0000     1.1690 o          1 UB1      -0.809800
      4 C21          1.9480    -0.0050    -1.2670 cc         1 UB1       0.005300
      5 S20          3.6930     0.1150    -1.4360 ss         1 UB1       0.047200
      6 C19          3.5820     0.0290    -3.1370 cc         1 UB1      -0.057000
      7 Br26         5.0620     0.0830    -4.3120 br         1 UB1      -0.079100
      8 C18          2.3050    -0.0820    -3.5280 cd         1 UB1       0.023100
      9 Br25         1.8080    -0.2020    -5.3490 br         1 UB1      -0.165100
     10 C17          1.3830    -0.1080    -2.5090 cd         1 UB1      -0.130300
     11 C16         -0.1000    -0.2350    -2.7360 c3         1 UB1       0.191300
     12 N3          -0.3580    -0.4840    -4.1560 n          1 UB1      -0.477400
     13 C2          -0.6700     0.5440    -4.9720 c          1 UB1       0.716700
     14 O14         -0.7390     1.6770    -4.5340 o          1 UB1      -0.603500
     15 C1          -0.9150     0.2920    -6.3440 cc         1 UB1      -0.238400
     16 C13         -1.2660     1.4230    -7.2770 c3         1 UB1      -0.021900
     17 C6          -0.8310    -0.9740    -6.8040 cd         1 UB1      -0.045400
     18 C4          -0.2750    -1.7360    -4.6440 c          1 UB1       0.808500
     19 O15          0.0120    -2.6510    -3.8970 o          1 UB1      -0.615500
     20 N5          -0.5110    -1.9890    -5.9440 n          1 UB1      -0.399000
     21 C7          -0.4200    -3.3630    -6.4440 c3         1 UB1       0.106000
     22 C8           1.0110    -3.6430    -6.9050 c3         1 UB1      -0.035500
     23 N9           1.4160    -2.6340    -7.8920 nz         1 UB1      -0.791600
     24 C10          1.0780    -5.0130    -7.5320 c          1 UB1       0.868600
     25 O11          1.1510    -6.1040    -6.7540 o          1 UB1      -0.779800
     26 O12          1.0670    -5.1270    -8.7350 o          1 UB1      -0.779800
     27 H161        -0.4860    -1.0610    -2.1500 h1         1 UB1       0.114200
     28 H162        -0.5920     0.6820    -2.4350 h1         1 UB1       0.114200
     29 H131        -0.3880     2.0330    -7.4510 hc         1 UB1       0.047367
     30 H132        -1.6180     1.0190    -8.2180 hc         1 UB1       0.047367
     31 H133        -2.0450     2.0300    -6.8310 hc         1 UB1       0.047367
     32 H6          -1.0180    -1.1860    -7.8500 h4         1 UB1       0.139000
     33 H71         -1.1000    -3.4900    -7.2780 h1         1 UB1       0.105200
     34 H72         -0.6860    -4.0540    -5.6530 h1         1 UB1       0.105200
     35 H8           1.6800    -3.6030    -6.0540 hx         1 UB1       0.136700
     36 HN91         1.5230    -1.7480    -7.4390 hn         1 UB1       0.438800
     37 HN92         0.7140    -2.5620    -8.6030 hn         1 UB1       0.438800
     38 H93          2.2850    -2.9030    -8.3080 hn         1 UB1       0.438800
@<TRIPOS>BOND
     1    23    22 1
     2    25    24 1
     3    22    24 1
     4    22    21 1
     5    24    26 1
     6     1     2 1
     7    16    15 1
     8    14    13 2
     9    15    13 1
    10    15    17 2
    11    13    12 1
    12    17    20 1
    13    11    12 1
    14    11    10 1
    15    12    18 1
    16     2     3 1
    17     2     4 1
    18    20    18 1
    19    20    21 1
    20    18    19 2
    21    10     4 2
    22    10     8 1
    23     4     5 1
    24     8     9 1
    25     8     6 2
    26     5     6 1
    27     6     7 1
    28    11    27 1
    29    11    28 1
    30    16    29 1
    31    16    30 1
    32    16    31 1
    33    17    32 1
    34    21    33 1
    35    21    34 1
    36    22    35 1
    37    23    36 1
    38    23    37 1
    39    38    23 1
@<TRIPOS>SUBSTRUCTURE
     1 UB1         1 TEMP              0 ****  ****    0 ROOT
