@<TRIPOS>MOLECULE
UB1
   38    39     1     0     0
SMALL
bcc


@<TRIPOS>ATOM
      1 O23          0.0000     0.0000     0.0000 o          1 UB1      -0.852300
      2 C22          1.2160     0.0000     0.0000 c          1 UB1       0.991200
      3 O24          1.8910     0.0000     1.1690 o          1 UB1      -0.852300
      4 C21          1.9480    -0.0050    -1.2670 cc         1 UB1       0.096300
      5 S20          3.6930     0.1150    -1.4360 ss         1 UB1      -0.134800
      6 C19          3.5820     0.0290    -3.1370 cc         1 UB1       0.044000
      7 Br26         5.0620     0.0830    -4.3120 br         1 UB1      -0.083100
      8 C18          2.3050    -0.0820    -3.5280 cd         1 UB1       0.096100
      9 Br25         1.8080    -0.2020    -5.3490 br         1 UB1      -0.240100
     10 C17          1.3830    -0.1080    -2.5090 cd         1 UB1      -0.151300
     11 C16         -0.1000    -0.2350    -2.7360 c3         1 UB1       0.128300
     12 N3          -0.3580    -0.4840    -4.1560 n          1 UB1      -0.088400
     13 C2          -0.6700     0.5440    -4.9720 c          1 UB1       0.626700
     14 O14         -0.7390     1.6770    -4.5340 o          1 UB1      -0.631500
     15 C1          -0.9150     0.2920    -6.3440 cc         1 UB1      -0.234400
     16 C13         -1.2660     1.4230    -7.2770 c3         1 UB1       0.092100
     17 C6          -0.8310    -0.9740    -6.8040 cd         1 UB1      -0.177400
     18 C4          -0.2750    -1.7360    -4.6440 c          1 UB1       0.596500
     19 O15          0.0120    -2.6510    -3.8970 o          1 UB1      -0.652500
     20 N5          -0.5110    -1.9890    -5.9440 n          1 UB1      -0.012000
     21 C7          -0.4200    -3.3630    -6.4440 c3         1 UB1       0.049000
     22 C8           1.0110    -3.6430    -6.9050 c3         1 UB1      -0.220500
     23 N9           1.4160    -2.6340    -7.8920 nz         1 UB1       0.069400
     24 C10          1.0780    -5.0130    -7.5320 c          1 UB1       0.960600
     25 O11          1.1510    -6.1040    -6.7540 o          1 UB1      -0.822800
     26 O12          1.0670    -5.1270    -8.7350 o          1 UB1      -0.822800
     27 H161        -0.4860    -1.0610    -2.1500 h1         1 UB1       0.083700
     28 H162        -0.5920     0.6820    -2.4350 h1         1 UB1       0.083700
     29 H131        -0.3880     2.0330    -7.4510 hc         1 UB1       0.011033
     30 H132        -1.6180     1.0190    -8.2180 hc         1 UB1       0.011033
     31 H133        -2.0450     2.0300    -6.8310 hc         1 UB1       0.011033
     32 H6          -1.0180    -1.1860    -7.8500 h4         1 UB1       0.121000
     33 H71         -1.1000    -3.4900    -7.2780 h1         1 UB1       0.074200
     34 H72         -0.6860    -4.0540    -5.6530 h1         1 UB1       0.074200
     35 H8           1.6800    -3.6030    -6.0540 hx         1 UB1       0.117700
     36 HN91         1.5230    -1.7480    -7.4390 hn         1 UB1       0.213133
     37 HN92         0.7140    -2.5620    -8.6030 hn         1 UB1       0.213133
     38 H93          2.2850    -2.9030    -8.3080 hn         1 UB1       0.213133
@<TRIPOS>BOND
     1     1     2 1   
     2     2     3 1   
     3     2     4 1   
     4     4     5 1   
     5     4    10 2   
     6     5     6 1   
     7     6     7 1   
     8     6     8 2   
     9     8     9 1   
    10     8    10 1   
    11    10    11 1   
    12    11    12 1   
    13    11    27 1   
    14    11    28 1   
    15    12    13 1   
    16    12    18 1   
    17    13    14 2   
    18    13    15 1   
    19    15    16 1   
    20    15    17 2   
    21    16    29 1   
    22    16    30 1   
    23    16    31 1   
    24    17    20 1   
    25    17    32 1   
    26    18    19 2   
    27    18    20 1   
    28    20    21 1   
    29    21    22 1   
    30    21    33 1   
    31    21    34 1   
    32    22    23 1   
    33    22    24 1   
    34    22    35 1   
    35    23    36 1   
    36    23    37 1   
    37    23    38 1   
    38    24    25 1   
    39    24    26 1   
@<TRIPOS>SUBSTRUCTURE
     1 UB1         1 TEMP              0 ****  ****    0 ROOT
