@<TRIPOS>MOLECULE
UB3
   61    61     1     0     0
SMALL
bcc


@<TRIPOS>ATOM
      1 C7           0.0000     0.0000     0.0000 c          1 UB3       0.648100
      2 O29          1.2150     0.0000     0.0000 o          1 UB3      -0.655000
      3 O6          -0.6730     0.0000     1.1660 os         1 UB3      -0.441900
      4 C5           0.1180     0.0020     2.3840 c3         1 UB3       0.294700
      5 C4          -0.8000     0.0020     3.5790 ca         1 UB3      -0.089300
      6 C30         -1.2230     1.2000     4.1260 ca         1 UB3      -0.076000
      7 C31         -2.0640     1.2000     5.2220 ca         1 UB3      -0.117500
      8 C1          -2.4840     0.0030     5.7720 ca         1 UB3      -0.115000
      9 C2          -2.0630    -1.1940     5.2240 ca         1 UB3      -0.117500
     10 C3          -1.2200    -1.1950     4.1280 ca         1 UB3      -0.076000
     11 N8          -0.6740    -0.0020    -1.1670 ns         1 UB3      -0.063900
     12 C9           0.0590    -0.0030    -2.4360 c3         1 UB3       0.004800
     13 P10          0.2340    -1.7150    -3.0360 p5         1 UB3       0.466500
     14 O12         -1.1070    -2.3060    -3.2400 o          1 UB3      -0.637500
     15 O11          1.0430    -2.5850    -1.9490 o          1 UB3      -0.637500
     16 N13          1.0750    -1.7160    -4.4940 n7         1 UB3      -0.557300
     17 C14          1.3250    -3.0870    -4.9560 c3         1 UB3       0.125500
     18 C18          2.6560    -3.1450    -5.6590 c          1 UB3       0.580100
     19 O28          3.1980    -2.1210    -6.0180 o          1 UB3      -0.670100
     20 C15          0.2180    -3.5070    -5.9260 c3         1 UB3      -0.085700
     21 C16          0.2960    -2.6500    -7.1910 c3         1 UB3      -0.024600
     22 C17          0.3970    -4.9800    -6.2960 c3         1 UB3      -0.024600
     23 N19          3.2460    -4.3360    -5.8880 ns         1 UB3      -0.178900
     24 C20          4.5880    -4.3880    -6.4720 c3         1 UB3      -0.096300
     25 C21          4.4880    -4.3120    -7.9730 c          1 UB3       0.981600
     26 O22          3.4040    -4.2230    -8.5020 o          1 UB3      -0.905300
     27 C24          5.2680    -5.7000    -6.0720 c3         1 UB3      -0.021400
     28 C25          5.4840    -5.7210    -4.5580 c3         1 UB3      -0.067700
     29 C26          6.0480    -7.0810    -4.1430 c3         1 UB3       0.003400
     30 C27          6.4700    -4.6200    -4.1670 c3         1 UB3       0.003400
     31 O23          5.6000    -4.3430    -8.7240 o          1 UB3      -0.905300
     32 H5           0.7430    -0.8820     2.4100 h1         1 UB3       0.013200
     33 H5A          0.7420     0.8870     2.4080 h1         1 UB3       0.013200
     34 H30         -0.8940     2.1380     3.6950 ha         1 UB3       0.112000
     35 H31         -2.3940     2.1380     5.6510 ha         1 UB3       0.093000
     36 H1          -3.1440     0.0030     6.6310 ha         1 UB3       0.089000
     37 H2          -2.3920    -2.1320     5.6540 ha         1 UB3       0.093000
     38 H3          -0.8900    -2.1340     3.6990 ha         1 UB3       0.112000
     39 HN8         -1.6740     0.0340    -1.1670 hn         1 UB3       0.147500
     40 H9          -0.4860     0.5820    -3.1670 h1         1 UB3       0.030200
     41 H9A          1.0410     0.4300    -2.2860 h1         1 UB3       0.030200
     42 HN13         0.9260    -0.9830    -5.1580 hn         1 UB3       0.280800
     43 H14          1.3360    -3.7590    -4.1070 h1         1 UB3       0.066700
     44 H15         -0.7470    -3.3680    -5.4540 hc         1 UB3       0.059700
     45 H16          0.1900    -3.2840    -8.0640 hc         1 UB3       0.006700
     46 H16A         1.2530    -2.1440    -7.2270 hc         1 UB3       0.006700
     47 H16B        -0.5000    -1.9160    -7.1800 hc         1 UB3       0.006700
     48 H17          0.6770    -5.5430    -5.4140 hc         1 UB3       0.006700
     49 H17A        -0.5340    -5.3690    -6.6910 hc         1 UB3       0.006700
     50 H17B         1.1730    -5.0730    -7.0460 hc         1 UB3       0.006700
     51 HN19         2.7840    -5.1830    -5.6210 hn         1 UB3       0.162500
     52 H20          5.1730    -3.5530    -6.1070 h1         1 UB3       0.055700
     53 H24          4.6400    -6.5340    -6.3590 hc         1 UB3       0.022200
     54 H24A         6.2240    -5.7780    -6.5750 hc         1 UB3       0.022200
     55 H25          4.5390    -5.5540    -4.0560 hc         1 UB3       0.036700
     56 H26          6.1600    -7.1120    -3.0660 hc         1 UB3      -0.003967
     57 H26A         5.3690    -7.8650    -4.4570 hc         1 UB3      -0.003967
     58 H26B         7.0130    -7.2300    -4.6110 hc         1 UB3      -0.003967
     59 H27          5.9370    -3.6850    -4.0430 hc         1 UB3      -0.003967
     60 H27A         6.9570    -4.8840    -3.2360 hc         1 UB3      -0.003967
     61 H27B         7.2160    -4.5090    -4.9460 hc         1 UB3      -0.003967
@<TRIPOS>BOND
     1     1     2 2   
     2     1     3 1   
     3     1    11 1   
     4     3     4 1   
     5     4     5 1   
     6     4    32 1   
     7     4    33 1   
     8     5     6 ar  
     9     5    10 ar  
    10     6     7 ar  
    11     6    34 1   
    12     7     8 ar  
    13     7    35 1   
    14     8     9 ar  
    15     8    36 1   
    16     9    10 ar  
    17     9    37 1   
    18    10    38 1   
    19    11    12 1   
    20    11    39 1   
    21    12    13 1   
    22    12    40 1   
    23    12    41 1   
    24    13    14 1   
    25    13    15 1   
    26    13    16 1   
    27    16    17 1   
    28    16    42 1   
    29    17    18 1   
    30    17    20 1   
    31    17    43 1   
    32    18    19 2   
    33    18    23 1   
    34    20    21 1   
    35    20    22 1   
    36    20    44 1   
    37    21    45 1   
    38    21    46 1   
    39    21    47 1   
    40    22    48 1   
    41    22    49 1   
    42    22    50 1   
    43    23    24 1   
    44    23    51 1   
    45    24    25 1   
    46    24    27 1   
    47    24    52 1   
    48    25    26 1   
    49    25    31 1   
    50    27    28 1   
    51    27    53 1   
    52    27    54 1   
    53    28    29 1   
    54    28    30 1   
    55    28    55 1   
    56    29    56 1   
    57    29    57 1   
    58    29    58 1   
    59    30    59 1   
    60    30    60 1   
    61    30    61 1   
@<TRIPOS>SUBSTRUCTURE
     1 UB3         1 TEMP              0 ****  ****    0 ROOT
