@<TRIPOS>MOLECULE
UBA
   38    39     1     0     0
SMALL
bcc


@<TRIPOS>ATOM
      1 O           2.6830    0.8410    0.0360 o         1 UBA     -0.788300
      2 C           1.8570    0.0360    0.5260 c         1 UBA      0.925600
      3 OXT         1.6090   -1.1410    0.1750 o         1 UBA     -0.788300
      4 CA          0.9840    0.5770    1.7400 c3        1 UBA     -0.077500
      5 N           0.8430   -0.4740    2.7720 n4        1 UBA     -0.798600
      6 CB          1.5360    1.9100    2.2700 c3        1 UBA      0.098000
      7 N4          2.6630    1.8040    3.1660 n         1 UBA     -0.383000
      8 C5          2.4000    1.5730    4.5460 c         1 UBA      0.790500
      9 O8          1.2040    1.5480    4.9210 o         1 UBA     -0.652500
     10 N6          3.4790    1.4290    5.4350 n         1 UBA     -0.469400
     11 C1          4.8160    1.5830    4.9910 c         1 UBA      0.722700
     12 O7          5.7410    1.6100    5.8240 o         1 UBA     -0.627500
     13 C2          5.0280    1.7240    3.5380 cc        1 UBA     -0.283400
     14 C6          6.4240    1.7420    3.0620 c3        1 UBA     -0.020900
     15 C3          3.9630    1.7920    2.6910 cd        1 UBA      0.053600
     16 C17         3.2070    0.8760    6.7600 c3        1 UBA      0.167300
     17 C18         3.5520   -0.5630    6.9100 cc        1 UBA     -0.187300
     18 C23         4.8480   -0.9920    7.3550 cc        1 UBA     -0.128000
     19 C22         4.9150   -2.3590    7.4800 cd        1 UBA     -0.217100
     20 S20         3.4650   -3.0820    7.0590 ss        1 UBA      0.005200
     21 C19         2.7010   -1.6330    6.7010 cd        1 UBA     -0.080700
     22 C10         1.2810   -1.5670    6.2080 c         1 UBA      0.946200
     23 O2          1.0820   -1.7860    4.9700 o         1 UBA     -0.838800
     24 O1          0.3580   -1.3100    7.0180 o         1 UBA     -0.838800
     25 HA         -0.0430    0.7850    1.3220 hx        1 UBA      0.079700
     26 HN1         1.7590   -0.8030    3.1060 hn        1 UBA      0.465800
     27 HN2         0.3330   -0.1620    3.6140 hn        1 UBA      0.465800
     28 HB1         1.8540    2.5010    1.3600 h1        1 UBA      0.088700
     29 HB2         0.7160    2.4650    2.8110 h1        1 UBA      0.088700
     30 H61         6.9140    0.7580    3.2750 hc        1 UBA      0.043033
     31 H62         7.0010    2.5350    3.5990 hc        1 UBA      0.043033
     32 H63         6.4730    1.9350    1.9620 hc        1 UBA      0.043033
     33 H3          4.0620    1.8270    1.5820 h4        1 UBA      0.210000
     34 H171        2.1060    1.0130    6.9810 h1        1 UBA      0.085200
     35 H172        3.8180    1.4820    7.4890 h1        1 UBA      0.085200
     36 H23         5.6620   -0.2860    7.5400 ha        1 UBA      0.155000
     37 H22         5.7840   -2.9260    7.8010 h4        1 UBA      0.151000
     38 HN3         0.3780   -1.2880    2.3610 hn        1 UBA      0.465800
@<TRIPOS>BOND
     1    1    2 1
     2    2    3 1
     3    2    4 1
     4    4    5 1
     5    4    6 1
     6    4   25 1
     7    5   26 1
     8    5   27 1
     9    5   38 1
    10    6    7 1
    11    6   28 1
    12    6   29 1
    13    7    8 1
    14    7   15 1
    15    8    9 2
    16    8   10 1
    17   10   11 1
    18   10   16 1
    19   11   12 2
    20   11   13 1
    21   13   14 1
    22   13   15 2
    23   14   30 1
    24   14   31 1
    25   14   32 1
    26   15   33 1
    27   16   17 1
    28   16   34 1
    29   16   35 1
    30   17   18 1
    31   17   21 2
    32   18   19 2
    33   18   36 1
    34   19   20 1
    35   19   37 1
    36   20   21 1
    37   21   22 1
    38   22   23 1
    39   22   24 1
@<TRIPOS>SUBSTRUCTURE
     1 UBA         1 TEMP              0 ****  ****    0 ROOT
