@<TRIPOS>MOLECULE
molecule
   30    31     1     0     0
SMALL
bcc


@<TRIPOS>ATOM
      1 O1P          0.0000     0.0000     0.0000 o          1 UBB      -0.906500
      2 P            1.6160     0.0000     0.0000 p5         1 UBB       1.160900
      3 O2P          2.2580     0.0000     1.3570 o          1 UBB      -0.906500
      4 O3P          1.9890     1.2670    -0.9320 o          1 UBB      -0.906500
      5 O5'          2.0010    -1.2620    -0.9380 os         1 UBB      -0.572200
      6 C5'          1.4350    -1.3360    -2.2360 c3         1 UBB       0.211400
      7 C4'          1.9380    -2.5980    -2.9240 c3         1 UBB       0.116100
      8 O4'          1.4990    -3.7360    -2.1610 os         1 UBB      -0.392600
      9 C1'          0.5240    -4.4590    -2.9250 c3         1 UBB       0.306500
     10 N1          -0.5760    -4.8150    -2.0780 n          1 UBB      -0.376000
     11 C6          -0.9220    -3.9540    -1.0450 cc         1 UBB       0.072600
     12 C5          -1.9260    -4.1770    -0.1940 cd         1 UBB      -0.341200
     13 C4          -2.7340    -5.4050    -0.3360 c          1 UBB       0.715700
     14 O4          -3.6630    -5.6400     0.4310 o          1 UBB      -0.652500
     15 N3          -2.3490    -6.2320    -1.3800 ns         1 UBB      -0.599500
     16 C2          -1.2990    -6.0120    -2.2820 c          1 UBB       0.828500
     17 O2          -1.0480    -6.8220    -3.1760 o          1 UBB      -0.676500
     18 C2'          0.1150    -3.5650    -4.0790 c3         1 UBB      -0.129400
     19 C3'          1.3770    -2.7770    -4.3260 c3         1 UBB      -0.115400
     20 H5'1         1.7310    -0.4670    -2.8110 h1         1 UBB       0.035200
     21 H5'2         0.3550    -1.3700    -2.1600 h1         1 UBB       0.035200
     22 H4'          3.0200    -2.5880    -2.9660 h1         1 UBB       0.064700
     23 H1'          0.9810    -5.3590    -3.3190 h2         1 UBB       0.059700
     24 H6          -0.3430    -3.0470    -0.9220 h4         1 UBB       0.248000
     25 H5          -2.1460    -3.4650     0.5920 ha         1 UBB       0.200000
     26 HN3         -2.8770    -7.0730    -1.5030 hn         1 UBB       0.315500
     27 H2'1        -0.1460    -4.1560    -4.9490 hc         1 UBB       0.057700
     28 H2'2        -0.6970    -2.9100    -3.7900 hc         1 UBB       0.057700
     29 H3'1         2.0660    -3.3400    -4.9440 hc         1 UBB       0.045700
     30 H3'2         1.1470    -1.8160    -4.7710 hc         1 UBB       0.045700
@<TRIPOS>BOND
     1     1     2 1
     2     2     3 1
     3     2     4 1
     4     2     5 1
     5     5     6 1
     6     6     7 1
     7     6    20 1
     8     6    21 1
     9     7     8 1
    10     7    19 1
    11     7    22 1
    12     8     9 1
    13     9    10 1
    14     9    18 1
    15     9    23 1
    16    10    11 1
    17    10    16 1
    18    11    12 2
    19    11    24 1
    20    12    13 1
    21    12    25 1
    22    13    14 2
    23    13    15 1
    24    15    16 1
    25    15    26 1
    26    16    17 2
    27    18    19 1
    28    18    27 1
    29    18    28 1
    30    19    29 1
    31    19    30 1
@<TRIPOS>SUBSTRUCTURE
     1 UBB         1 TEMP              0 ****  ****    0 ROOT
