@<TRIPOS>MOLECULE
UBC
   38    39     1     0     0
SMALL
bcc


@<TRIPOS>ATOM
      1 O1          3.9330   -2.4080    0.6320 o         1 UBC     -0.858800
      2 C10         4.2030   -1.2220    0.2560 c         1 UBC      0.909200
      3 O2          5.1270   -0.5710    0.8390 o         1 UBC     -0.858800
      4 C22         3.4650   -0.6370   -0.9120 ca        1 UBC     -0.093600
      5 C23         2.2210   -1.1970   -1.2380 ca        1 UBC     -0.097000
      6 C24         1.5090   -0.7580   -2.3500 ca        1 UBC     -0.150000
      7 C25         2.0440    0.2400   -3.1640 ca        1 UBC     -0.141000
      8 C26         3.2780    0.8020   -2.8510 ca        1 UBC     -0.133000
      9 C21         3.9940    0.3820   -1.7190 ca        1 UBC     -0.047300
     10 C17         5.2330    1.1460   -1.3630 c3        1 UBC      0.149300
     11 N6          6.5370    0.5080   -1.5000 n         1 UBC     -0.462400
     12 C5          6.6590   -0.8910   -1.6580 c         1 UBC      0.816500
     13 O8          5.8700   -1.5600   -2.3540 o         1 UBC     -0.622500
     14 C1          7.6380    1.2720   -1.0230 c         1 UBC      0.716700
     15 O7          7.5330    2.5120   -0.9470 o         1 UBC     -0.646500
     16 C2          8.8520    0.5440   -0.6500 cc        1 UBC     -0.355200
     17 C3          8.8680   -0.8140   -0.6290 cd        1 UBC      0.058600
     18 N4          7.7930   -1.5550   -1.0840 n         1 UBC     -0.388000
     19 CB          7.7610   -2.9880   -0.9120 c3        1 UBC      0.094000
     20 CA          7.6480   -3.4990    0.5360 c3        1 UBC     -0.067500
     21 N           6.5990   -2.8470    1.3520 n4        1 UBC     -0.841600
     22 C           9.0380   -3.4490    1.2950 c         1 UBC      0.918600
     23 OXT         8.9710   -3.4900    2.5500 o         1 UBC     -0.794800
     24 O          10.0690   -3.4010    0.5840 o         1 UBC     -0.794800
     25 H23         1.8320   -2.0070   -0.6010 ha        1 UBC      0.150000
     26 H24         0.5340   -1.2030   -2.5920 ha        1 UBC      0.114000
     27 H25         1.4960    0.5810   -4.0530 ha        1 UBC      0.112000
     28 H26         3.6990    1.5850   -3.5000 ha        1 UBC      0.121000
     29 H171        5.1300    1.4600   -0.2770 h1        1 UBC      0.071700
     30 H172        5.2880    2.0810   -1.9980 h1        1 UBC      0.071700
     31 H2          9.7110    1.1460   -0.3370 ha        1 UBC      0.166000
     32 H3          9.7310   -1.4110   -0.2520 h4        1 UBC      0.212000
     33 HB1         6.9010   -3.3950   -1.5190 h1        1 UBC      0.093200
     34 HB2         8.7310   -3.4160   -1.3060 h1        1 UBC      0.093200
     35 HA          7.3860   -4.5960    0.4650 hx        1 UBC      0.078700
     36 HN1         6.8000   -3.0600    2.3360 hn        1 UBC      0.469133
     37 HN2         6.6010   -1.8190    1.2390 hn        1 UBC      0.469133
     38 HN3         5.6450   -3.1620    1.0980 hn        1 UBC      0.469133
@<TRIPOS>BOND
     1    1    2 1   
     2    2    3 1   
     3    2    4 1   
     4    4    5 ar  
     5    4    9 ar  
     6    5    6 ar  
     7    5   25 1   
     8    6    7 ar  
     9    6   26 1   
    10    7    8 ar  
    11    7   27 1   
    12    8    9 ar  
    13    8   28 1   
    14    9   10 1   
    15   10   11 1   
    16   10   29 1   
    17   10   30 1   
    18   11   12 1   
    19   11   14 1   
    20   12   13 2   
    21   12   18 1   
    22   14   15 2   
    23   14   16 1   
    24   16   17 2   
    25   16   31 1   
    26   17   18 1   
    27   17   32 1   
    28   18   19 1   
    29   19   20 1   
    30   19   33 1   
    31   19   34 1   
    32   20   21 1   
    33   20   22 1   
    34   20   35 1   
    35   21   36 1   
    36   21   37 1   
    37   21   38 1   
    38   22   23 1   
    39   22   24 1   
@<TRIPOS>SUBSTRUCTURE
     1 UBC         1 TEMP              0 ****  ****    0 ROOT
