@<TRIPOS>MOLECULE
molecule
   48    50     1     0     0
SMALL
bcc


@<TRIPOS>ATOM
      1 O24          0.0000     0.0000     0.0000 o          1 UBE      -0.813800
      2 C22          1.2160     0.0000     0.0000 c          1 UBE       0.896200
      3 O23          1.8900     0.0000     1.1700 o          1 UBE      -0.813800
      4 C21          1.9480    -0.0070    -1.2660 cc         1 UBE       0.021300
      5 S20          3.6950     0.1150    -1.4270 ss         1 UBE      -0.058800
      6 C19          3.5760     0.0220    -3.1790 cc         1 UBE      -0.083100
      7 C25          4.7200     0.0610    -4.1130 ca         1 UBE       0.038000
      8 C30          6.0210     0.1820    -3.6230 ca         1 UBE      -0.140500
      9 C29          7.0860     0.2180    -4.5000 ca         1 UBE      -0.123000
     10 C28          6.8650     0.1360    -5.8630 ca         1 UBE      -0.151000
     11 C27          5.5780     0.0150    -6.3560 ca         1 UBE      -0.123000
     12 C26          4.5050    -0.0290    -5.4890 ca         1 UBE      -0.140500
     13 C18          2.2660    -0.0940    -3.5450 cd         1 UBE      -0.139000
     14 C17          1.3790    -0.1150    -2.5050 cd         1 UBE      -0.159300
     15 C16         -0.1100    -0.2420    -2.7080 c3         1 UBE       0.183300
     16 N3          -0.3970    -0.3790    -4.1370 n          1 UBE      -0.456400
     17 C4          -0.6310     0.7180    -4.8810 c          1 UBE       0.788500
     18 O15         -0.6010     1.8160    -4.3580 o          1 UBE      -0.675500
     19 C2          -0.4220    -1.6020    -4.7030 c          1 UBE       0.696700
     20 O14         -0.2070    -2.5950    -4.0310 o          1 UBE      -0.587500
     21 C1          -0.7020    -1.7220    -6.0860 cc         1 UBE      -0.258400
     22 C13         -0.7360    -3.0780    -6.7430 c3         1 UBE      -0.016900
     23 C6          -0.9380    -0.6060    -6.8080 cd         1 UBE       0.000600
     24 N5          -0.8980     0.6170    -6.1970 n          1 UBE      -0.401000
     25 C7          -1.1470     1.8290    -6.9810 c3         1 UBE       0.099000
     26 C8           0.1740     2.3520    -7.5470 c3         1 UBE      -0.030500
     27 N9           1.1320     2.5510    -6.4510 nz         1 UBE      -0.791600
     28 C10         -0.0640     3.6630    -8.2510 c          1 UBE       0.869600
     29 O11         -0.5640     3.6760    -9.4960 o          1 UBE      -0.778800
     30 O12          0.1950     4.7040    -7.6920 o          1 UBE      -0.778800
     31 H30          6.1950     0.2470    -2.5560 ha         1 UBE       0.127500
     32 H29          8.0960     0.3130    -4.1210 ha         1 UBE       0.122000
     33 H28          7.7040     0.1670    -6.5480 ha         1 UBE       0.121000
     34 H27          5.4120    -0.0520    -7.4250 ha         1 UBE       0.122000
     35 H26          3.4980    -0.1240    -5.8760 ha         1 UBE       0.127500
     36 H18          1.9550    -0.1680    -4.5800 ha         1 UBE       0.101000
     37 H161        -0.4720    -1.1170    -2.1810 h1         1 UBE       0.113700
     38 H162        -0.6040     0.6420    -2.3220 h1         1 UBE       0.113700
     39 H131        -0.8990    -2.9590    -7.8070 hc         1 UBE       0.048700
     40 H132        -1.5410    -3.6650    -6.3180 hc         1 UBE       0.048700
     41 H133         0.2080    -3.5830    -6.5760 hc         1 UBE       0.048700
     42 H6          -1.1540    -0.6780    -7.8670 h4         1 UBE       0.166000
     43 H71         -1.8230     1.5990    -7.7960 h1         1 UBE       0.108200
     44 H72         -1.5920     2.5860    -6.3460 h1         1 UBE       0.108200
     45 H8           0.5750     1.6320    -8.2510 hx         1 UBE       0.095700
     46 HN91         0.6750     3.0090    -5.6880 hn         1 UBE       0.451467
     47 HN92         1.4800     1.6630    -6.1470 hn         1 UBE       0.451467
     48 H93          1.8930     3.1150    -6.7720 hn         1 UBE       0.451467
@<TRIPOS>BOND
     1    27    26 1
     2    29    28 1
     3     1     2 1
     4    28    26 1
     5    28    30 1
     6    26    25 1
     7     2     3 1
     8     2     4 1
     9    15    16 1
    10    15    14 1
    11    20    19 2
    12    16    19 1
    13    16    17 1
    14    19    21 1
    15    18    17 2
    16    17    24 1
    17    21    22 1
    18    21    23 2
    19    24    23 1
    20    24    25 1
    21     4    14 2
    22     4     5 1
    23    14    13 1
    24    13     6 2
    25     5     6 1
    26     6     7 1
    27     7     8 ar
    28     7    12 ar
    29     8     9 ar
    30    12    11 ar
    31     9    10 ar
    32    11    10 ar
    33     8    31 1
    34     9    32 1
    35    10    33 1
    36    11    34 1
    37    12    35 1
    38    13    36 1
    39    15    37 1
    40    15    38 1
    41    22    39 1
    42    22    40 1
    43    22    41 1
    44    23    42 1
    45    25    43 1
    46    25    44 1
    47    26    45 1
    48    27    46 1
    49    27    47 1
    50    48    27 1
@<TRIPOS>SUBSTRUCTURE
     1 UBE         1 TEMP              0 ****  ****    0 ROOT
