@<TRIPOS>MOLECULE
molecule
   35    36     1     0     0
SMALL
bcc


@<TRIPOS>ATOM
      1 O23          0.0000     0.0000     0.0000 o          1 UBF      -0.822300
      2 C22          1.3480     0.0000     0.0000 c          1 UBF       0.902200
      3 O24          1.9570     0.0000     1.0530 o          1 UBF      -0.822300
      4 C21          2.0810    -0.0010    -1.2680 cc         1 UBF       0.002300
      5 S20          1.3550    -0.1260    -2.8650 ss         1 UBF      -0.060800
      6 C19          2.8840    -0.0440    -3.6170 cc         1 UBF      -0.178100
      7 C18          3.8600     0.0700    -2.7080 cd         1 UBF      -0.156000
      8 C17          3.4370     0.1020    -1.4000 cd         1 UBF      -0.157300
      9 C16          4.3780     0.2250    -0.2300 c3         1 UBF       0.190300
     10 N3           5.7510     0.3710    -0.7190 n          1 UBF      -0.451400
     11 C4           6.2430     1.5970    -0.9780 c          1 UBF       0.789500
     12 O15          5.5400     2.5740    -0.8030 o          1 UBF      -0.601500
     13 C2           6.5190    -0.7220    -0.9030 c          1 UBF       0.697700
     14 O14          6.0760    -1.8310    -0.6640 o          1 UBF      -0.569500
     15 C1           7.8440    -0.5680    -1.3750 cd         1 UBF      -0.206500
     16 Br13         8.9470    -2.0810    -1.6440 br         1 UBF      -0.028700
     17 C6           8.3120     0.6730    -1.6330 cc         1 UBF      -0.004400
     18 N5           7.5010     1.7570    -1.4270 n          1 UBF      -0.398000
     19 C7           8.0070     3.1040    -1.7060 c3         1 UBF       0.102000
     20 C8           7.7040     3.4720    -3.1590 c3         1 UBF      -0.036500
     21 N9           8.2570     2.4430    -4.0500 nz         1 UBF      -0.792600
     22 C10          8.3300     4.8040    -3.4810 c          1 UBF       0.867600
     23 O11          7.7240     5.9400    -3.1020 o          1 UBF      -0.774300
     24 O12          9.3780     4.8500    -4.0800 o          1 UBF      -0.774300
     25 H19          3.0440    -0.0810    -4.6880 h4         1 UBF       0.140000
     26 H18          4.9060     0.1390    -2.9830 ha         1 UBF       0.094000
     27 H161         4.3060    -0.6640     0.3850 h1         1 UBF       0.111700
     28 H162         4.1090     1.0930     0.3590 h1         1 UBF       0.111700
     29 H6           9.3230     0.8100    -1.9940 h4         1 UBF       0.150000
     30 H71          7.5250     3.8150    -1.0450 h1         1 UBF       0.109700
     31 H72          9.0780     3.1280    -1.5420 h1         1 UBF       0.109700
     32 H8           6.6320     3.5330    -3.3000 hx         1 UBF       0.134700
     33 HN91         9.2110     2.2670    -3.8040 hn         1 UBF       0.440133
     34 HN92         8.2100     2.7620    -4.9970 hn         1 UBF       0.440133
     35 H93          7.7270     1.5990    -3.9550 hn         1 UBF       0.440133
@<TRIPOS>BOND
     1     6     5 1
     2     6     7 2
     3     5     4 1
     4     7     8 1
     5     8     4 2
     6     8     9 1
     7     4     2 1
     8    19    18 1
     9    19    20 1
    10    17    18 1
    11    17    15 2
    12    18    11 1
    13    16    15 1
    14    15    13 1
    15    11    12 2
    16    11    10 1
    17    13    10 1
    18    13    14 2
    19    10     9 1
    20    24    22 1
    21     3     2 1
    22     2     1 1
    23    22    20 1
    24    22    23 1
    25    20    21 1
    26     6    25 1
    27     7    26 1
    28     9    27 1
    29     9    28 1
    30    17    29 1
    31    19    30 1
    32    19    31 1
    33    20    32 1
    34    21    33 1
    35    21    34 1
    36    35    21 1
@<TRIPOS>SUBSTRUCTURE
     1 UBF         1 TEMP              0 ****  ****    0 ROOT
