@<TRIPOS>MOLECULE
molecule
   31    31     1     0     0
SMALL
bcc


@<TRIPOS>ATOM
      1 N1           0.0000     0.0000     0.0000 n          1 UBP      -0.404000
      2 C2           1.3450     0.0000     0.0000 c          1 UBP       0.784500
      3 O2           1.9460     0.0010    -1.0570 o          1 UBP      -0.678500
      4 N3           2.0370     0.0000     1.1560 n          1 UBP      -0.456400
      5 C4           1.3860    -0.0000     2.3370 c          1 UBP       0.690700
      6 O4           2.0100     0.0010     3.3820 o          1 UBP      -0.594500
      7 C5          -0.0300    -0.0000     2.3490 cc         1 UBP      -0.309200
      8 C6          -0.6980     0.0060     1.1770 cd         1 UBP       0.006600
      9 C7          -0.7250    -0.0000    -1.2740 c3         1 UBP       0.099000
     10 C8          -0.9780    -1.4420    -1.7170 c3         1 UBP      -0.029500
     11 N8           0.2990    -2.1690    -1.7690 nz         1 UBP      -0.790600
     12 C9          -1.6120    -1.4450    -3.0840 c          1 UBP       0.869600
     13 O91         -2.9280    -1.2100    -3.2130 o          1 UBP      -0.777800
     14 O92         -0.9380    -1.6570    -4.0630 o          1 UBP      -0.777800
     15 C1           3.5020    -0.0000     1.1290 c3         1 UBP       0.107000
     16 C3           4.0110     1.4420     1.1200 c3         1 UBP      -0.201400
     17 C10          5.5180     1.4430     1.0940 c          1 UBP       0.899600
     18 O3           6.1890     2.6050     1.0810 o          1 UBP      -0.846300
     19 O1           6.1220     0.3960     1.0820 o          1 UBP      -0.846300
     20 H5          -0.5700     0.0020     3.2880 ha         1 UBP       0.172000
     21 H6          -1.7810     0.0060     1.1670 h4         1 UBP       0.162000
     22 H7          -0.1360     0.5110    -2.0250 h1         1 UBP       0.110200
     23 H7A         -1.6730     0.5100    -1.1500 h1         1 UBP       0.110200
     24 H8          -1.6400    -1.9270    -1.0100 hx         1 UBP       0.094700
     25 HN8          0.9630    -1.6400    -2.2990 hn         1 UBP       0.449133
     26 HN8A         0.1580    -3.0590    -2.2050 hn         1 UBP       0.449133
     27 H1           3.8470    -0.5110     0.2380 h1         1 UBP       0.083700
     28 H1A          3.8790    -0.5100     2.0070 h1         1 UBP       0.083700
     29 H3           3.6350     1.9520     0.2410 hc         1 UBP       0.045200
     30 H3A          3.6650     1.9530     2.0100 hc         1 UBP       0.045200
     31 H83          0.6410    -2.3110    -0.8390 hn         1 UBP       0.449133
@<TRIPOS>BOND
     1     8     1 1
     2     1     9 1
     3     1     2 1
     4     4     2 1
     5     2     3 2
     6     5     4 1
     7     4    15 1
     8     7     5 1
     9     6     5 2
    10     7     8 2
    11     7    20 1
    12     8    21 1
    13     9    10 1
    14     9    22 1
    15     9    23 1
    16    11    10 1
    17    10    12 1
    18    10    24 1
    19    11    25 1
    20    11    26 1
    21    13    12 1
    22    12    14 1
    23    16    15 1
    24    15    27 1
    25    15    28 1
    26    16    17 1
    27    16    29 1
    28    16    30 1
    29    17    19 1
    30    17    18 1
    31    31    11 1
@<TRIPOS>SUBSTRUCTURE
     1 UBP         1 TEMP              0 ****  ****    0 ROOT
