@<TRIPOS>MOLECULE
UBP
   31    31     1     0     0
SMALL
bcc


@<TRIPOS>ATOM
      1 N1           0.0000     0.0000     0.0000 n          1 UBP      -0.018000
      2 C2           1.3450     0.0000     0.0000 c          1 UBP       0.580500
      3 O2           1.9460     0.0010    -1.0570 o          1 UBP      -0.728500
      4 N3           2.0370     0.0000     1.1560 n          1 UBP      -0.067400
      5 C4           1.3860    -0.0000     2.3370 c          1 UBP       0.606700
      6 O4           2.0100     0.0010     3.3820 o          1 UBP      -0.625500
      7 C5          -0.0300    -0.0000     2.3490 cc         1 UBP      -0.275200
      8 C6          -0.6980     0.0060     1.1770 cd         1 UBP      -0.112400
      9 C7          -0.7250    -0.0000    -1.2740 c3         1 UBP       0.043000
     10 C8          -0.9780    -1.4420    -1.7170 c3         1 UBP      -0.210500
     11 N8           0.2990    -2.1690    -1.7690 nz         1 UBP       0.066400
     12 C9          -1.6120    -1.4450    -3.0840 c          1 UBP       0.960600
     13 O91         -2.9280    -1.2100    -3.2130 o          1 UBP      -0.822300
     14 O92         -0.9380    -1.6570    -4.0630 o          1 UBP      -0.822300
     15 C1           3.5020    -0.0000     1.1290 c3         1 UBP       0.036000
     16 C3           4.0110     1.4420     1.1200 c3         1 UBP      -0.151400
     17 C10          5.5180     1.4430     1.0940 c          1 UBP       0.989600
     18 O3           6.1890     2.6050     1.0810 o          1 UBP      -0.895800
     19 O1           6.1220     0.3960     1.0820 o          1 UBP      -0.895800
     20 H5          -0.5700     0.0020     3.2880 ha         1 UBP       0.145000
     21 H6          -1.7810     0.0060     1.1670 h4         1 UBP       0.135000
     22 H7          -0.1360     0.5110    -2.0250 h1         1 UBP       0.078700
     23 H7A         -1.6730     0.5100    -1.1500 h1         1 UBP       0.078700
     24 H8          -1.6400    -1.9270    -1.0100 hx         1 UBP       0.076700
     25 HN8          0.9630    -1.6400    -2.2990 hn         1 UBP       0.223800
     26 HN8A         0.1580    -3.0590    -2.2050 hn         1 UBP       0.223800
     27 H1           3.8470    -0.5110     0.2380 h1         1 UBP       0.058200
     28 H1A          3.8790    -0.5100     2.0070 h1         1 UBP       0.058200
     29 H3           3.6350     1.9520     0.2410 hc         1 UBP       0.019200
     30 H3A          3.6650     1.9530     2.0100 hc         1 UBP       0.019200
     31 H83          0.6410    -2.3110    -0.8390 hn         1 UBP       0.223800
@<TRIPOS>BOND
     1     1     2 1   
     2     1     8 1   
     3     1     9 1   
     4     2     3 2   
     5     2     4 1   
     6     4     5 1   
     7     4    15 1   
     8     5     6 2   
     9     5     7 1   
    10     7     8 2   
    11     7    20 1   
    12     8    21 1   
    13     9    10 1   
    14     9    22 1   
    15     9    23 1   
    16    10    11 1   
    17    10    12 1   
    18    10    24 1   
    19    11    25 1   
    20    11    26 1   
    21    11    31 1   
    22    12    13 1   
    23    12    14 1   
    24    15    16 1   
    25    15    27 1   
    26    15    28 1   
    27    16    17 1   
    28    16    29 1   
    29    16    30 1   
    30    17    18 1   
    31    17    19 1   
@<TRIPOS>SUBSTRUCTURE
     1 UBP         1 TEMP              0 ****  ****    0 ROOT
