@<TRIPOS>MOLECULE
UC1
   40    38     1     0     0
SMALL
bcc


@<TRIPOS>ATOM
      1 C2         -0.0890    2.4930   -0.0190 c2        1 UC1     -0.194000
      2 C4          0.3400    0.7170    1.6810 c2        1 UC1      0.000000
      3 C5          1.0610   -0.3310    1.9900 c1        1 UC1     -0.103000
      4 C6          1.7990   -1.3570    2.3100 c2        1 UC1      0.002000
      5 O7          4.3650   -0.3500   -4.4240 os        1 UC1     -0.134000
      6 C8          4.6550    0.6380   -3.5220 c1        1 UC1      0.069000
      7 C9          3.4190    0.9260   -2.7950 c2        1 UC1     -0.355000
      8 C10         2.3460    0.0280   -3.3640 c3        1 UC1     -0.285000
      9 C11         3.0820   -0.7730   -4.4120 c1        1 UC1      0.093000
     10 C           3.2500    1.8020   -1.7840 c2        1 UC1     -0.211000
     11 S           4.3070    2.8330   -1.0700 ss        1 UC1      0.366000
     12 C1          1.3010   -2.6850    2.3910 c1        1 UC1     -0.107000
     13 C3          0.1540    1.2180    0.3170 c2        1 UC1      0.038000
     14 CL         -0.4370    1.5900    2.9290 cl        1 UC1      0.007000
     15 OB          0.3770    0.2750   -0.6950 os        1 UC1     -0.190000
     16 CC         -0.7190   -0.4850   -1.0910 c2        1 UC1      0.035000
     17 CD         -1.9490   -0.3430   -0.6820 c1        1 UC1     -0.282000
     18 CE         -3.1890   -0.2580   -0.2960 c2        1 UC1     -0.036000
     19 CF         -5.4790   -0.1210   -1.2260 c3        1 UC1     -0.210000
     20 CG         -4.2010    0.6250   -0.9330 c3        1 UC1     -0.137000
     21 H2         -0.2320    2.7920   -1.0670 ha        1 UC1      0.142000
     22 H5          2.8780   -1.2400    2.5370 ha        1 UC1      0.175000
     23 H6         -0.1620    3.2910    0.7310 ha        1 UC1      0.142000
     24 H10         1.5170    0.6090   -3.8410 hc        1 UC1      0.143500
     25 H11         1.8930   -0.6380   -2.5870 hc        1 UC1      0.143500
     26 HA1         6.5450    3.3580   -1.3690 h1        1 UC1      0.129000
     27 HA2         5.7920    2.8710   -2.9580 h1        1 UC1      0.129000
     28 HA3         6.2470    1.6040   -1.7750 h1        1 UC1      0.129000
     29 HN          2.2380    1.8630   -1.3210 h4        1 UC1      0.170000
     30 HC1        -2.3720    2.7470   -2.5690 ha        1 UC1      0.000500
     31 HC2        -1.8540    3.1600   -2.7090 ha        1 UC1      0.000500
     32 HD         -0.3630   -1.2260   -1.8290 h4        1 UC1      0.181000
     33 HF1        -6.2300    0.5700   -1.6800 hc        1 UC1      0.078000
     34 HF2        -3.5520   -0.8550    0.5610 ha        1 UC1      0.137000
     35 HF3        -5.9120   -0.5490   -0.2900 hc        1 UC1      0.078000
     36 HG1        -5.2930   -0.9580   -1.9410 hc        1 UC1      0.078000
     37 HG2        -4.4150    1.4770   -0.2300 hc        1 UC1      0.092500
     38 HG3        -3.7970    1.0730   -1.8810 hc        1 UC1      0.092500
     39 N           0.9130   -3.7790    2.4630 n1        1 UC1     -0.016000
     40 CA          5.8510    2.6430   -1.8680 c3        1 UC1     -0.389000
@<TRIPOS>BOND
     1    1   13 1
     2    1   21 1
     3    1   23 1
     4    2    3 1
     5    2   13 1
     6    2   14 1
     7    3    4 1
     8    4   12 1
     9    4   22 1
    10    5    6 1
    11    5    9 1
    12    6    7 1
    13    7    8 1
    14    7   10 1
    15    8    9 1
    16    8   24 1
    17    8   25 1
    18   10   11 1
    19   10   29 1
    20   11   40 1
    21   12   39 1
    22   13   15 1
    23   15   16 1
    24   16   17 1
    25   16   32 1
    26   17   18 1
    27   18   20 1
    28   18   34 1
    29   19   20 1
    30   19   33 1
    31   19   35 1
    32   19   36 1
    33   20   37 1
    34   20   38 1
    35   26   40 1
    36   27   40 1
    37   28   40 1
    38   30   31 1
@<TRIPOS>SUBSTRUCTURE
     1 UC1         1 TEMP              0 ****  ****    0 ROOT
