@<TRIPOS>MOLECULE
UC2
   42    43     1     0     0
SMALL
bcc


@<TRIPOS>ATOM
      1 O7         -0.2510   -0.3070    0.4200 os        1 UC2     -0.358800
      2 C8          1.1190   -0.2960    0.1560 cc        1 UC2      0.357000
      3 C9          1.8230   -0.4010    1.3520 cd        1 UC2     -0.292900
      4 C10         0.8300   -0.4910    2.4120 cd        1 UC2     -0.252300
      5 C11        -0.4020   -0.4340    1.8030 cc        1 UC2      0.242600
      6 CA          1.5020   -0.1740   -1.2520 c3        1 UC2     -0.162400
      7 C           3.2750   -0.4410    1.5360 c         1 UC2      0.474000
      8 S           4.1760   -1.1500    0.4350 s         1 UC2     -0.475400
      9 N           3.6960    0.1640    2.6950 n         1 UC2     -0.385100
     10 C1          5.0030    0.3000    3.1990 ca        1 UC2      0.044600
     11 C2          6.1170   -0.3930    2.6940 ca        1 UC2     -0.131000
     12 C3          7.3860   -0.2210    3.2630 ca        1 UC2     -0.088900
     13 C4          7.5560    0.6560    4.3400 ca        1 UC2      0.022400
     14 C5          6.4520    1.3520    4.8500 ca        1 UC2     -0.109000
     15 C6          5.1940    1.1810    4.2970 ca        1 UC2     -0.160000
     16 CL          9.0750    0.9270    5.0470 cl        1 UC2     -0.074400
     17 CB          8.4930   -0.9700    2.6510 ce        1 UC2      0.376800
     18 NC          9.3330   -1.6660    3.3670 n2        1 UC2     -0.399200
     19 OD         10.2580   -2.2900    2.6670 os        1 UC2     -0.196300
     20 CE         11.2040   -3.0960    3.4610 c3        1 UC2      0.173800
     21 CF         10.4700   -4.1990    4.2010 c3        1 UC2     -0.106100
     22 CG         12.1160   -3.6750    2.3850 c3        1 UC2     -0.106100
     23 CH         11.9860   -2.2080    4.4130 c3        1 UC2     -0.106100
     24 H10         1.0370   -0.6130    3.4710 ha        1 UC2      0.163000
     25 H11        -1.4350   -0.4670    2.1380 h4        1 UC2      0.060100
     26 HA1         1.3430    0.8760   -1.6040 hc        1 UC2      0.078700
     27 HA2         2.5850   -0.4500   -1.3630 hc        1 UC2      0.078700
     28 HA3         0.8810   -0.8570   -1.8850 hc        1 UC2      0.078700
     29 HN          2.9930    0.6060    3.2550 hn        1 UC2      0.321500
     30 H2          6.0060   -1.0830    1.8330 ha        1 UC2      0.196000
     31 H5          6.5830    2.0420    5.6980 ha        1 UC2      0.150000
     32 H6          4.3460    1.7410    4.7210 ha        1 UC2      0.135000
     33 HB          8.5350   -0.9110    1.5440 h4        1 UC2      0.015800
     34 HF1         9.8610   -3.7780    5.0370 hc        1 UC2      0.048256
     35 HF2        11.2100   -4.9200    4.6240 hc        1 UC2      0.048256
     36 HF3         9.7910   -4.7420    3.5020 hc        1 UC2      0.048256
     37 HG1        12.8910   -4.3140    2.8690 hc        1 UC2      0.048256
     38 HG2        11.5230   -4.2930    1.6700 hc        1 UC2      0.048256
     39 HG3        12.6150   -2.8530    1.8190 hc        1 UC2      0.048256
     40 HH1        11.3300   -1.8370    5.2360 hc        1 UC2      0.048256
     41 HH2        12.8270   -2.7900    4.8590 hc        1 UC2      0.048256
     42 HH3        12.4010   -1.3300    3.8630 hc        1 UC2      0.048256
@<TRIPOS>BOND
     1    1    2 1   
     2    1    5 1   
     3    2    3 2   
     4    2    6 1   
     5    3    4 1   
     6    3    7 1   
     7    4    5 2   
     8    4   24 1   
     9    5   25 1   
    10    6   26 1   
    11    6   27 1   
    12    6   28 1   
    13    7    8 2   
    14    7    9 1   
    15    9   10 1   
    16    9   29 1   
    17   10   11 ar  
    18   10   15 ar  
    19   11   12 ar  
    20   11   30 1   
    21   12   13 ar  
    22   12   17 1   
    23   13   14 ar  
    24   13   16 1   
    25   14   15 ar  
    26   14   31 1   
    27   15   32 1   
    28   17   18 2   
    29   17   33 1   
    30   18   19 1   
    31   19   20 1   
    32   20   21 1   
    33   20   22 1   
    34   20   23 1   
    35   21   34 1   
    36   21   35 1   
    37   21   36 1   
    38   22   37 1   
    39   22   38 1   
    40   22   39 1   
    41   23   40 1   
    42   23   41 1   
    43   23   42 1   
@<TRIPOS>SUBSTRUCTURE
     1 UC2         1 TEMP              0 ****  ****    0 ROOT
