@<TRIPOS>MOLECULE
molecule
   38    38     1     0     0
SMALL
bcc


@<TRIPOS>ATOM
      1 C            0.0000     0.0000     0.0000 cs         1 UC3       0.639500
      2 S            1.7110     0.0000     0.0000 s          1 UC3      -0.672400
      3 N           -0.6740     0.0000     1.1670 ns         1 UC3      -0.387100
      4 C1           0.0220    -0.1230     2.3760 ca         1 UC3       0.012600
      5 C2           1.0670    -1.0250     2.4840 ca         1 UC3      -0.028000
      6 C3           1.7610    -1.1410     3.6900 ca         1 UC3      -0.121600
      7 C4           1.3870    -0.3530     4.7830 ca         1 UC3       0.083400
      8 Cl4          2.2400    -0.4960     6.2880 cl         1 UC3      -0.055400
      9 C5           0.3400     0.5400     4.6640 ca         1 UC3      -0.137000
     10 C6          -0.3420     0.6560     3.4690 ca         1 UC3      -0.100000
     11 CA           2.8800    -2.0950     3.8130 c          1 UC3       0.655700
     12 OB           3.2370    -2.8530     2.7590 os         1 UC3      -0.430900
     13 OA           3.4790    -2.1980     4.8650 o          1 UC3      -0.537000
     14 CC           4.3370    -3.7930     2.8780 c3         1 UC3       0.157100
     15 CD           4.0990    -4.9800     1.9440 c3         1 UC3      -0.103600
     16 CE           5.6450    -3.0980     2.4950 c3         1 UC3      -0.103600
     17 OF          -0.6740     0.0010    -1.1670 os         1 UC3      -0.391900
     18 CG           0.0500     0.0010    -2.4240 c3         1 UC3       0.154100
     19 CH          -0.7770    -0.7190    -3.4900 c3         1 UC3      -0.105100
     20 CI           0.3040     1.4440    -2.8650 c3         1 UC3      -0.105100
     21 HN          -1.6730     0.0560     1.1690 hn         1 UC3       0.335500
     22 H2           1.3510    -1.6320     1.6330 ha         1 UC3       0.191000
     23 H5           0.0510     1.1490     5.5110 ha         1 UC3       0.154000
     24 H6          -1.1620     1.3580     3.3810 ha         1 UC3       0.140000
     25 HC           4.4020    -4.1450     3.9000 h1         1 UC3       0.064700
     26 HD1          3.1590    -5.4550     2.1960 hc         1 UC3       0.047200
     27 HD2          4.0640    -4.6310     0.9190 hc         1 UC3       0.047200
     28 HD3          4.9050    -5.6940     2.0550 hc         1 UC3       0.047200
     29 HE1          5.5670    -2.7130     1.4850 hc         1 UC3       0.047200
     30 HE2          5.8330    -2.2800     3.1800 hc         1 UC3       0.047200
     31 HE3          6.4610    -3.8080     2.5480 hc         1 UC3       0.047200
     32 HG           0.9970    -0.5100    -2.2960 h1         1 UC3       0.097700
     33 HH1         -0.2240    -0.7430    -4.4220 hc         1 UC3       0.052033
     34 HH2         -0.9810    -1.7320    -3.1660 hc         1 UC3       0.052033
     35 HH3         -1.7120    -0.1920    -3.6390 hc         1 UC3       0.052033
     36 HI1          0.7530     1.4460    -3.8510 hc         1 UC3       0.052033
     37 HI2          0.9750     1.9230    -2.1620 hc         1 UC3       0.052033
     38 HI3         -0.6350     1.9830    -2.8940 hc         1 UC3       0.052033
@<TRIPOS>BOND
     1     1     2 2
     2     1     3 1
     3     1    17 1
     4     3     4 1
     5     3    21 1
     6     4     5 ar
     7     4    10 ar
     8     5     6 ar
     9     5    22 1
    10     6     7 ar
    11     6    11 1
    12     7     8 1
    13     7     9 ar
    14     9    10 ar
    15     9    23 1
    16    10    24 1
    17    11    12 1
    18    11    13 2
    19    12    14 1
    20    14    15 1
    21    14    16 1
    22    14    25 1
    23    15    26 1
    24    15    27 1
    25    15    28 1
    26    16    29 1
    27    16    30 1
    28    16    31 1
    29    17    18 1
    30    18    19 1
    31    18    20 1
    32    18    32 1
    33    19    33 1
    34    19    34 1
    35    19    35 1
    36    20    36 1
    37    20    37 1
    38    20    38 1
@<TRIPOS>SUBSTRUCTURE
     1 UC3         1 TEMP              0 ****  ****    0 ROOT
