@<TRIPOS>MOLECULE
UC4
   41    42     1     0     0
SMALL
bcc


@<TRIPOS>ATOM
      1 Cl           0.0000     0.0000     0.0000 cl         1 UC4       0.034600
      2 C1           2.4360     0.0000     1.2100 ca         1 UC4      -0.127600
      3 C2           1.7360     0.0000     0.0000 ca         1 UC4      -0.008600
      4 C3           2.4280     0.0100    -1.1960 ca         1 UC4      -0.101000
      5 C4           3.8090     0.0100    -1.2000 ca         1 UC4      -0.094000
      6 C5           4.5130     0.0030    -0.0020 ca         1 UC4      -0.102400
      7 C6           3.8310    -0.0010     1.2040 ca         1 UC4      -0.049000
      8 O7           0.4860    -0.0050     2.4930 o          1 UC4      -0.586000
      9 O8           2.3770    -0.0110     3.6550 os         1 UC4      -0.411900
     10 C8           1.6540    -0.0150     4.9140 c3         1 UC4       0.191100
     11 C9           2.4840    -0.7410     5.9760 c3         1 UC4      -0.014100
     12 C10          1.4010     1.4250     5.3630 c3         1 UC4      -0.014100
     13 OA          10.0050    -1.2160     2.2440 os         1 UC4      -0.262900
     14 CB           8.7080    -1.1920     1.9680 c2         1 UC4       0.185900
     15 CC           8.0540    -0.5460     1.0100 ce         1 UC4      -0.206600
     16 S            8.8980     0.4210    -0.2010 ss         1 UC4      -0.350700
     17 CD          10.5400     0.4590     0.5900 c3         1 UC4       0.053700
     18 CE          10.8150    -0.9610     1.1080 c3         1 UC4       0.183400
     19 CG           6.5940    -0.6450     0.9520 c          1 UC4       0.628300
     20 N            5.9120     0.0020    -0.0130 ns         1 UC4      -0.028100
     21 H3           1.8850     0.0150    -2.1340 ha         1 UC4       0.118000
     22 H4           4.3460     0.0160    -2.1410 ha         1 UC4       0.109000
     23 H6           4.3790    -0.0040     2.1380 ha         1 UC4       0.155000
     24 H8           0.7070    -0.5250     4.7850 h1         1 UC4       0.033700
     25 H91          1.9230    -0.7890     6.9010 hc         1 UC4       0.012367
     26 H92          3.4090    -0.2020     6.1410 hc         1 UC4       0.012367
     27 H93          2.7060    -1.7450     5.6360 hc         1 UC4       0.012367
     28 H101         0.7580     1.9190     4.6450 hc         1 UC4       0.012367
     29 H102         0.9210     1.4220     6.3340 hc         1 UC4       0.012367
     30 H103         2.3440     1.9540     5.4280 hc         1 UC4       0.012367
     31 HD1         11.2940     0.7390    -0.1370 h1         1 UC4       0.062200
     32 HD2         10.5360     1.1590     1.4170 h1         1 UC4       0.062200
     33 HE1         10.5800    -1.6790     0.3310 h1         1 UC4       0.034200
     34 HE2         11.8590    -1.0480     1.3830 h1         1 UC4       0.034200
     35 HF1          7.1480    -1.3820     3.4040 hc         1 UC4       0.041033
     36 HF2          8.4720    -2.5390     3.6000 hc         1 UC4       0.041033
     37 HF3          7.2970    -2.7520     2.2950 hc         1 UC4       0.041033
     38 HN           6.4060     0.4860    -0.7370 hn         1 UC4       0.186500
     39 C7           1.7000    -0.0050     2.4900 c          1 UC4       0.723700
     40 CF           7.8450    -2.0250     2.8810 c3         1 UC4       0.018100
     41 OG           5.9950    -1.3120     1.7750 o          1 UC4      -0.652100
@<TRIPOS>BOND
     1     1     3 1   
     2     2     3 ar  
     3     2     7 ar  
     4     2    39 1   
     5     3     4 ar  
     6     4     5 ar  
     7     4    21 1   
     8     5     6 ar  
     9     5    22 1   
    10     6     7 ar  
    11     6    20 1   
    12     7    23 1   
    13     8    39 2   
    14     9    10 1   
    15     9    39 1   
    16    10    11 1   
    17    10    12 1   
    18    10    24 1   
    19    11    25 1   
    20    11    26 1   
    21    11    27 1   
    22    12    28 1   
    23    12    29 1   
    24    12    30 1   
    25    13    14 1   
    26    13    18 1   
    27    14    15 2   
    28    14    40 1   
    29    15    16 1   
    30    15    19 1   
    31    16    17 1   
    32    17    18 1   
    33    17    31 1   
    34    17    32 1   
    35    18    33 1   
    36    18    34 1   
    37    19    20 1   
    38    19    41 2   
    39    20    38 1   
    40    35    40 1   
    41    36    40 1   
    42    37    40 1   
@<TRIPOS>SUBSTRUCTURE
     1 UC4         1 TEMP              0 ****  ****    0 ROOT
