@<TRIPOS>MOLECULE
molecule
   37    38     1     0     0
SMALL
bcc


@<TRIPOS>ATOM
      1 O4           0.0000     0.0000     0.0000 o          1 UC5      -0.709500
      2 C4           1.2170     0.0000     0.0000 c          1 UC5       0.699700
      3 C5           1.9320     0.0000     1.2220 cc         1 UC5      -0.387200
      4 C6           3.2820     0.0010     1.1930 cd         1 UC5      -0.033400
      5 N3           1.8960    -0.0000    -1.1650 ns         1 UC5      -0.569500
      6 C2           3.2430     0.0050    -1.1640 c          1 UC5       0.799500
      7 O2           3.8430     0.0050    -2.2220 o          1 UC5      -0.613500
      8 N1           3.9350     0.0010    -0.0110 n          1 UC5      -0.344000
      9 C1'          5.3990     0.0010    -0.0420 c3         1 UC5       0.310500
     10 C2'          5.9240    -1.3110    -0.6650 c3         1 UC5      -0.153400
     11 C3'          7.1580    -0.8700    -1.4830 c3         1 UC5       0.110100
     12 O3'          8.3390    -1.5070    -0.9910 oh         1 UC5      -0.612800
     13 O4'          5.8850     1.0450    -0.9140 os         1 UC5      -0.353600
     14 C4'          7.2340     0.6560    -1.2610 c3         1 UC5       0.136100
     15 C5'          7.6800     1.3660    -2.5410 c3         1 UC5       0.167400
     16 O5'          7.7840     2.7710    -2.2970 os         1 UC5      -0.547200
     17 PA           8.2550     3.4500    -3.6770 p5         1 UC5       1.110600
     18 O1A          9.5020     2.8060    -4.1450 o          1 UC5      -0.812500
     19 O2A          7.1040     3.2630    -4.7880 o          1 UC5      -0.812500
     20 C3A          8.5540     5.2280    -3.4070 c3         1 UC5      -0.405800
     21 PB           9.0870     5.9990    -4.9720 p5         1 UC5       1.110700
     22 O1B          7.9370     5.8110    -6.0830 o          1 UC5      -0.857167
     23 O2B          9.3520     7.5680    -4.7340 o          1 UC5      -0.857167
     24 O3B         10.3350     5.3540    -5.4390 o          1 UC5      -0.857167
     25 H5           1.4040     0.0000     2.1680 ha         1 UC5       0.142000
     26 H6           3.8460    -0.0010     2.1170 h4         1 UC5       0.136000
     27 HN3          1.3980    -0.0050    -2.0330 hn         1 UC5       0.346500
     28 H1'          5.8020     0.1290     0.9550 h2         1 UC5       0.050700
     29 H2'1         6.2150    -2.0080     0.1110 hc         1 UC5       0.050700
     30 H2'2         5.1760    -1.7470    -1.3150 hc         1 UC5       0.050700
     31 H3'          7.0110    -1.0910    -2.5340 h1         1 UC5       0.069700
     32 HO3'         8.5860    -2.2060    -1.5740 ho         1 UC5       0.390000
     33 H4'          7.9100     0.8820    -0.4450 h1         1 UC5       0.054700
     34 H5'1         8.6440     0.9820    -2.8500 h1         1 UC5       0.065700
     35 H5'2         6.9530     1.1890    -3.3240 h1         1 UC5       0.065700
     36 H3A1         9.3280     5.3550    -2.6600 hc         1 UC5       0.029700
     37 H3A2         7.6410     5.7000    -3.0650 hc         1 UC5       0.029700
@<TRIPOS>BOND
     1     1     2 2
     2     2     3 1
     3     2     5 1
     4     3     4 2
     5     3    25 1
     6     4     8 1
     7     4    26 1
     8     5     6 1
     9     5    27 1
    10     6     7 2
    11     6     8 1
    12     8     9 1
    13     9    10 1
    14     9    13 1
    15     9    28 1
    16    10    11 1
    17    10    29 1
    18    10    30 1
    19    11    12 1
    20    11    14 1
    21    11    31 1
    22    12    32 1
    23    13    14 1
    24    14    15 1
    25    14    33 1
    26    15    16 1
    27    15    34 1
    28    15    35 1
    29    16    17 1
    30    17    18 1
    31    17    19 1
    32    17    20 1
    33    20    21 1
    34    20    36 1
    35    20    37 1
    36    21    22 1
    37    21    23 1
    38    21    24 1
@<TRIPOS>SUBSTRUCTURE
     1 UC5         1 TEMP              0 ****  ****    0 ROOT
