@<TRIPOS>MOLECULE
molecule
   53    56     1     0     0
SMALL
bcc


@<TRIPOS>ATOM
      1 C4           0.0000     0.0000     0.0000 ca         1 UC9       0.547600
      2 C5           1.3950     0.0000     0.0000 ca         1 UC9      -0.331600
      3 C6           2.0620     0.0000     1.2410 ca         1 UC9       0.736200
      4 N1           1.3410     0.0000     2.3560 nb         1 UC9      -0.872000
      5 N3          -0.6430     0.0050     1.1570 nb         1 UC9      -0.846000
      6 CAK         -1.0230    -1.4420    -1.7380 c3         1 UC9      -0.101100
      7 CAI         -0.7640    -0.0000    -1.2980 c3         1 UC9      -0.115700
      8 C2           0.0170    -0.0010     2.3060 ca         1 UC9       1.000900
      9 NAH         -0.6990    -0.0010     3.4900 nv         1 UC9      -0.998500
     10 NAG          3.4440    -0.0010     1.2980 nv         1 UC9      -0.985500
     11 CAJ          2.1300    -0.0010    -1.2300 cg         1 UC9      -0.128000
     12 CAL          2.7430    -0.0170    -2.2310 c1         1 UC9      -0.139100
     13 CAM          3.1640     0.1700    -3.7410 c3         1 UC9       0.061700
     14 CBC          2.6680     1.5620    -4.1860 c3         1 UC9      -0.069100
     15 CAN          4.7520     0.3230    -3.7840 ca         1 UC9      -0.147300
     16 CAO          5.5550    -0.7190    -4.2770 ca         1 UC9      -0.127000
     17 CAS          5.2400     1.7820    -3.2040 ca         1 UC9      -0.149000
     18 CAR          6.6480     1.6870    -3.3390 ca         1 UC9       0.110100
     19 OAW          7.5170     2.7710    -2.9420 os         1 UC9      -0.386900
     20 CAV          8.6680     2.8500    -3.6510 c3         1 UC9       0.341200
     21 OAU          8.9230     1.1290    -3.7280 os         1 UC9      -0.395900
     22 CAQ          7.5240     0.8710    -3.7420 ca         1 UC9       0.033100
     23 CAP          7.0100    -0.4810    -4.2750 cp         1 UC9       0.054000
     24 CAT          7.9520    -1.5130    -4.7730 cp         1 UC9      -0.104000
     25 CAX          8.8270    -1.5370    -5.8390 ca         1 UC9      -0.150000
     26 CAY          9.5850    -2.7480    -5.9940 ca         1 UC9      -0.070000
     27 CAZ          9.3070    -3.7840    -4.9830 ca         1 UC9      -0.040600
     28 CBD         10.3480    -4.8500    -5.1600 c          1 UC9       0.757200
     29 OBF         11.0550    -4.9430    -6.4800 o          1 UC9      -0.825800
     30 OBE         10.2300    -6.0930    -4.8450 o          1 UC9      -0.825800
     31 CBA          8.4490    -3.7000    -3.9770 ca         1 UC9      -0.070000
     32 CBB          7.7280    -2.6450    -3.7660 ca         1 UC9      -0.150000
     33 H1          -1.8280    -1.6850    -1.0550 hc         1 UC9       0.043033
     34 H2          -1.7840    -1.5170    -2.5050 hc         1 UC9       0.043033
     35 H3          -0.2740    -2.2030    -1.5520 hc         1 UC9       0.043033
     36 H4          -1.7090     0.5280    -1.2690 hc         1 UC9       0.057200
     37 H5          -0.0930     0.5920    -1.9090 hc         1 UC9       0.057200
     38 H6          -0.5400    -0.1590     4.4660 hn         1 UC9       0.434300
     39 H7          -1.6830     0.0910     3.3340 hn         1 UC9       0.434300
     40 H8           3.6970    -0.4120     0.4210 hn         1 UC9       0.469300
     41 H9           3.8650     0.1590     2.1920 hn         1 UC9       0.469300
     42 H10          2.9660    -0.8150    -4.1460 hc         1 UC9       0.091700
     43 H11          2.9140     2.3270    -3.4590 hc         1 UC9       0.047033
     44 H12          3.1030     1.6320    -5.1750 hc         1 UC9       0.047033
     45 H13          1.6150     1.4830    -4.4300 hc         1 UC9       0.047033
     46 H14          4.8440    -1.4000    -4.7290 ha         1 UC9       0.158000
     47 H15          4.5030     2.5380    -2.9610 ha         1 UC9       0.188000
     48 H16          8.6670     3.0620    -4.7140 h2         1 UC9       0.088700
     49 H17          9.5330     3.0600    -3.0340 h2         1 UC9       0.088700
     50 H18          8.6510    -0.5430    -6.2320 ha         1 UC9       0.137000
     51 H19         10.4530    -2.5260    -6.6030 ha         1 UC9       0.153000
     52 H21          8.5710    -4.4490    -3.2040 ha         1 UC9       0.153000
     53 H22          6.9490    -2.9590    -3.0810 ha         1 UC9       0.137000
@<TRIPOS>BOND
     1    29    28 1
     2    30    28 1
     3    28    27 1
     4    26    27 ar
     5    26    25 ar
     6    27    31 ar
     7    10     3 1
     8     4     3 ar
     9     4     8 ar
    10    25    24 ar
    11    31    32 ar
    12     9     8 1
    13     3     2 ar
    14     8     5 ar
    15    24    32 ar
    16    24    23 1
    17     2    11 1
    18     2     1 ar
    19     5     1 ar
    20    11    12 3
    21    16    23 ar
    22    16    15 ar
    23     1     7 1
    24    12    13 1
    25    23    22 ar
    26     6     7 1
    27    13    15 1
    28    13    14 1
    29    15    17 ar
    30    22    21 1
    31    22    18 ar
    32    21    20 1
    33    17    18 ar
    34    18    19 1
    35    20    19 1
    36     6    33 1
    37     6    34 1
    38     6    35 1
    39     7    36 1
    40     7    37 1
    41     9    38 1
    42     9    39 1
    43    10    40 1
    44    10    41 1
    45    13    42 1
    46    14    43 1
    47    14    44 1
    48    14    45 1
    49    16    46 1
    50    17    47 1
    51    20    48 1
    52    20    49 1
    53    25    50 1
    54    26    51 1
    55    31    52 1
    56    32    53 1
@<TRIPOS>SUBSTRUCTURE
     1 UC9         1 TEMP              0 ****  ****    0 ROOT
