@<TRIPOS>MOLECULE
UCB
   72    76     1     0     0
SMALL
bcc


@<TRIPOS>ATOM
      1 N1           0.0000     0.0000     0.0000 n4         1 UCB      -0.061800
      2 N2           2.1150     2.3960     1.8640 ns         1 UCB      -0.249900
      3 C1           5.0050     4.0960     1.0380 ca         1 UCB      -0.144800
      4 C2           3.3050     2.8930     2.3590 c          1 UCB       0.598100
      5 C3           1.5490     1.1290     2.2850 c3         1 UCB       0.020700
      6 C4          -0.5560    -1.3330     0.5010 c3         1 UCB       0.023800
      7 C5           1.5320     0.0000     0.0000 c3         1 UCB      -0.019700
      8 C6           2.0420    -3.8550    -0.8480 c3         1 UCB      -0.017400
      9 C7           3.8780     7.1700     4.9220 ca         1 UCB      -0.049000
     10 C8          -0.7740    -3.7890    -0.0930 c3         1 UCB      -0.036900
     11 C9           2.6510     6.6320     4.5410 ca         1 UCB      -0.065600
     12 C10          2.1010     0.0000     1.4160 c3         1 UCB      -0.052400
     13 C11          7.4450     3.8200    -0.3190 ca         1 UCB      -0.049000
     14 C12          3.7010     4.2220     1.7810 c3         1 UCB       0.027900
     15 C13          5.0460     6.7640     4.2780 ca         1 UCB      -0.106000
     16 C14          1.9680    -4.9280     0.2490 c3         1 UCB      -0.019400
     17 C15          2.5910     5.6840     3.5180 ca         1 UCB      -0.074000
     18 C16          0.0240     1.1880     2.2380 c3         1 UCB      -0.052400
     19 C17         -0.5420     1.1720     0.8210 c3         1 UCB      -0.019700
     20 C18         -0.3710    -4.4490     1.2230 c3         1 UCB      -0.017400
     21 C19          1.1270    -4.5930     1.4800 c3         1 UCB      -0.019400
     22 C20          6.1610     4.7140     1.5250 ca         1 UCB       0.157100
     23 C21         -0.0900    -2.4560    -0.4290 c3         1 UCB      -0.058700
     24 C22          5.0830     3.3440    -0.1430 ca         1 UCB      -0.074000
     25 C23          1.4500    -2.4970    -0.4820 c3         1 UCB      -0.036900
     26 C24          4.9870     5.8190     3.2500 ca         1 UCB       0.157100
     27 C25          6.2970     3.2080    -0.8190 ca         1 UCB      -0.065600
     28 C26          3.7610     5.2650     2.8660 ca         1 UCB      -0.144800
     29 C27         -0.4740     0.1740    -1.4490 c3         1 UCB       0.026800
     30 C28          7.3790     4.5730     0.8520 ca         1 UCB      -0.106000
     31 O1           4.0280     2.3580     3.1930 o          1 UCB      -0.571100
     32 O2           6.1840     5.4850     2.6640 os         1 UCB      -0.184200
     33 Cl2          6.3780     2.2800    -2.2650 cl         1 UCB      -0.008900
     34 C29         -1.9860     0.1490    -1.4850 c3         1 UCB      -0.025100
     35 H25          1.6190     2.9370     1.1840 hn         1 UCB       0.177500
     36 H32          1.8480     0.9420     3.3090 h1         1 UCB       0.082700
     37 H2          -0.1960    -1.5210     1.5050 hx         1 UCB       0.079700
     38 H12         -1.6390    -1.2940     0.5060 hx         1 UCB       0.079700
     39 H7           1.8830    -0.8830    -0.5200 hx         1 UCB       0.090700
     40 H16          1.8830     0.8840    -0.5190 hx         1 UCB       0.090700
     41 H3           3.0840    -3.7100    -1.1070 hc         1 UCB       0.021700
     42 H21          1.5180    -4.2280    -1.7200 hc         1 UCB       0.021700
     43 H5           3.9250     7.9060     5.7160 ha         1 UCB       0.124000
     44 H9          -0.5590    -4.4860    -0.8940 hc         1 UCB       0.032950
     45 H27         -1.8430    -3.6180    -0.0660 hc         1 UCB       0.032950
     46 H6           1.8620    -0.9470     1.8850 hc         1 UCB       0.057200
     47 H20          3.1770     0.1030     1.3570 hc         1 UCB       0.057200
     48 H30          8.3870     3.7150    -0.8430 ha         1 UCB       0.124000
     49 H17          2.9410     4.5240     1.0710 hc         1 UCB       0.026700
     50 H29          6.0000     7.1820     4.5750 ha         1 UCB       0.130000
     51 H1           2.9780    -5.1340     0.5830 hc         1 UCB       0.020450
     52 H28          1.5640    -5.8300    -0.1940 hc         1 UCB       0.020450
     53 H18          1.6350     5.2700     3.2250 ha         1 UCB       0.096500
     54 H11         -0.3710     0.3360     2.7780 hc         1 UCB       0.057200
     55 H14         -0.3000     2.0980     2.7300 hc         1 UCB       0.057200
     56 H8          -1.6210     1.0930     0.8760 hx         1 UCB       0.090700
     57 H23         -0.2770     2.0990     0.3270 hx         1 UCB       0.090700
     58 H19         -0.8100    -5.4390     1.2480 hc         1 UCB       0.021700
     59 H24         -0.7940    -3.8660     2.0320 hc         1 UCB       0.021700
     60 H15          1.2710    -5.3780     2.2130 hc         1 UCB       0.020450
     61 H34          1.4900    -3.6600     1.8950 hc         1 UCB       0.020450
     62 H33         -0.4200    -2.1910    -1.4260 hc         1 UCB       0.031700
     63 H13          4.1940     2.8660    -0.5360 ha         1 UCB       0.096500
     64 H10          1.8330    -2.2100     0.4900 hc         1 UCB       0.032950
     65 H31          1.7840    -1.7720    -1.2150 hc         1 UCB       0.032950
     66 H22         -0.1180     1.1220    -1.8350 hx         1 UCB       0.074700
     67 H26         -0.0840    -0.6340    -2.0570 hx         1 UCB       0.074700
     68 H4           8.2710     5.0490     1.2410 ha         1 UCB       0.130000
     69 H291        -2.3690    -0.0130    -0.4840 hc         1 UCB       0.036367
     70 H292        -2.3540     1.0950    -1.8630 hc         1 UCB       0.036367
     71 H293        -2.3190    -0.6530    -2.1320 hc         1 UCB       0.036367
     72 Cl1          1.2080     7.1350     5.3320 cl         1 UCB      -0.008900
@<TRIPOS>BOND
     1     1     6 1   
     2     1     7 1   
     3     1    19 1   
     4     1    29 1   
     5     2     4 1   
     6     2     5 1   
     7     2    35 1   
     8     3    14 1   
     9     3    22 ar  
    10     3    24 ar  
    11     4    14 1   
    12     4    31 2   
    13     5    12 1   
    14     5    18 1   
    15     5    36 1   
    16     6    23 1   
    17     6    37 1   
    18     6    38 1   
    19     7    12 1   
    20     7    39 1   
    21     7    40 1   
    22     8    16 1   
    23     8    25 1   
    24     8    41 1   
    25     8    42 1   
    26     9    11 ar  
    27     9    15 ar  
    28     9    43 1   
    29    10    20 1   
    30    10    23 1   
    31    10    44 1   
    32    10    45 1   
    33    11    17 ar  
    34    11    72 1   
    35    12    46 1   
    36    12    47 1   
    37    13    27 ar  
    38    13    30 ar  
    39    13    48 1   
    40    14    28 1   
    41    14    49 1   
    42    15    26 ar  
    43    15    50 1   
    44    16    21 1   
    45    16    51 1   
    46    16    52 1   
    47    17    28 ar  
    48    17    53 1   
    49    18    19 1   
    50    18    54 1   
    51    18    55 1   
    52    19    56 1   
    53    19    57 1   
    54    20    21 1   
    55    20    58 1   
    56    20    59 1   
    57    21    60 1   
    58    21    61 1   
    59    22    30 ar  
    60    22    32 1   
    61    23    25 1   
    62    23    62 1   
    63    24    27 ar  
    64    24    63 1   
    65    25    64 1   
    66    25    65 1   
    67    26    28 ar  
    68    26    32 1   
    69    27    33 1   
    70    29    34 1   
    71    29    66 1   
    72    29    67 1   
    73    30    68 1   
    74    34    69 1   
    75    34    70 1   
    76    34    71 1   
@<TRIPOS>SUBSTRUCTURE
     1 UCB         1 TEMP              0 ****  ****    0 ROOT
