@<TRIPOS>MOLECULE
molecule
   44    46     1     0     0
SMALL
bcc


@<TRIPOS>ATOM
      1 O01          0.0000     0.0000     0.0000 oh         1 UCK      -0.587800
      2 C02          1.4290     0.0000     0.0000 c3         1 UCK       0.128100
      3 C03          1.9860     0.0000     1.4480 c3         1 UCK      -0.099400
      4 C04          1.9280     1.4910     1.8410 c3         1 UCK       0.051700
      5 C05          3.1410     1.8550     2.6570 c          1 UCK       0.650100
      6 N06          3.1850     1.5510     3.9690 ns         1 UCK      -0.584900
      7 C07          4.3650     1.9030     4.7640 c3         1 UCK       0.161300
      8 C08          4.1640     1.4560     6.1890 ca         1 UCK      -0.117300
      9 C09          4.5640     0.1930     6.5800 ca         1 UCK      -0.104500
     10 C10          4.3800    -0.2170     7.8880 ca         1 UCK      -0.125000
     11 C11          3.7940     0.6380     8.8040 ca         1 UCK       0.035400
     12 Cl1          3.5620     0.1240    10.4460 cl         1 UCK      -0.106400
     13 C13          3.3940     1.9030     8.4120 ca         1 UCK      -0.125000
     14 C14          3.5840     2.3130     7.1060 ca         1 UCK      -0.104500
     15 O15          4.0770     2.4200     2.1340 o          1 UCK      -0.594100
     16 N16          1.9130     2.2710     0.5950 n          1 UCK      -0.466800
     17 C17          1.8450     3.6130     0.5080 c          1 UCK       0.704700
     18 C18          1.9560     4.2770    -0.8080 ca         1 UCK      -0.128600
     19 C19          1.1800     5.4030    -1.0940 ca         1 UCK       0.074400
     20 Cl2          0.0840     6.0300     0.0960 cl         1 UCK      -0.073400
     21 C21          1.2900     6.0170    -2.3260 ca         1 UCK      -0.133000
     22 C22          2.1640     5.5180    -3.2760 ca         1 UCK      -0.102000
     23 C23          2.9340     4.4030    -2.9980 ca         1 UCK      -0.141000
     24 C24          2.8400     3.7840    -1.7690 ca         1 UCK      -0.097000
     25 O25          1.6940     4.2800     1.5130 o          1 UCK      -0.578100
     26 C26          1.9840     1.3390    -0.5460 c3         1 UCK       0.085000
     27 H01         -0.3140    -0.7410    -0.4920 ho         1 UCK       0.405000
     28 H02          1.8230    -0.8370    -0.5630 h1         1 UCK       0.048700
     29 H031         1.3540    -0.5910     2.1000 hc         1 UCK       0.067700
     30 H032         3.0080    -0.3590     1.4640 hc         1 UCK       0.067700
     31 H261         3.0120     1.2160    -0.8670 h1         1 UCK       0.060200
     32 H262         1.3680     1.6960    -1.3620 h1         1 UCK       0.060200
     33 H04          1.0250     1.6870     2.4070 h1         1 UCK       0.082700
     34 H06          2.4020     1.1070     4.4070 hn         1 UCK       0.316500
     35 H071         4.5100     2.9760     4.7390 h1         1 UCK       0.062200
     36 H072         5.2380     1.4110     4.3510 h1         1 UCK       0.062200
     37 H09          5.0230    -0.4760     5.8620 ha         1 UCK       0.143500
     38 H14          3.2710     3.3040     6.7980 ha         1 UCK       0.143500
     39 H10          4.6940    -1.2070     8.1940 ha         1 UCK       0.147000
     40 H13          2.9380     2.5740     9.1300 ha         1 UCK       0.147000
     41 H24          3.4440     2.9110    -1.5540 ha         1 UCK       0.146000
     42 H21          0.6890     6.8900    -2.5500 ha         1 UCK       0.147000
     43 H22          2.2440     6.0020    -4.2420 ha         1 UCK       0.137000
     44 H23          3.6180     4.0190    -3.7450 ha         1 UCK       0.135000
@<TRIPOS>BOND
     1     1     2 1
     2     2     3 1
     3     2    26 1
     4     3     4 1
     5     4     5 1
     6     4    16 1
     7     5     6 1
     8     5    15 2
     9     6     7 1
    10     7     8 1
    11     8     9 ar
    12     8    14 ar
    13     9    10 ar
    14    10    11 ar
    15    11    12 1
    16    11    13 ar
    17    13    14 ar
    18    16    17 1
    19    16    26 1
    20    17    18 1
    21    17    25 2
    22    18    19 ar
    23    18    24 ar
    24    19    20 1
    25    19    21 ar
    26    21    22 ar
    27    22    23 ar
    28    23    24 ar
    29     1    27 1
    30     2    28 1
    31     3    29 1
    32     3    30 1
    33    26    31 1
    34    26    32 1
    35     4    33 1
    36     6    34 1
    37     7    35 1
    38     7    36 1
    39     9    37 1
    40    14    38 1
    41    10    39 1
    42    13    40 1
    43    24    41 1
    44    21    42 1
    45    22    43 1
    46    23    44 1
@<TRIPOS>SUBSTRUCTURE
     1 UCK         1 TEMP              0 ****  ****    0 ROOT
