@<TRIPOS>MOLECULE
UCK
   44    46     1     0     0
SMALL
bcc


@<TRIPOS>ATOM
      1 O01          0.0000     0.0000     0.0000 oh         1 UCK      -0.571800
      2 C02          1.4290     0.0000     0.0000 c3         1 UCK       0.180100
      3 C03          1.9860     0.0000     1.4480 c3         1 UCK      -0.045400
      4 C04          1.9280     1.4910     1.8410 c3         1 UCK      -0.031300
      5 C05          3.1410     1.8550     2.6570 c          1 UCK       0.565100
      6 N06          3.1850     1.5510     3.9690 ns         1 UCK      -0.190900
      7 C07          4.3650     1.9030     4.7640 c3         1 UCK       0.111300
      8 C08          4.1640     1.4560     6.1890 ca         1 UCK      -0.126300
      9 C09          4.5640     0.1930     6.5800 ca         1 UCK      -0.073500
     10 C10          4.3800    -0.2170     7.8880 ca         1 UCK      -0.101000
     11 C11          3.7940     0.6380     8.8040 ca         1 UCK      -0.028600
     12 Cl1          3.5620     0.1240    10.4460 cl         1 UCK      -0.023400
     13 C13          3.3940     1.9030     8.4120 ca         1 UCK      -0.101000
     14 C14          3.5840     2.3130     7.1060 ca         1 UCK      -0.073500
     15 O15          4.0770     2.4200     2.1340 o          1 UCK      -0.638100
     16 N16          1.9130     2.2710     0.5950 n          1 UCK      -0.115800
     17 C17          1.8450     3.6130     0.5080 c          1 UCK       0.636700
     18 C18          1.9560     4.2770    -0.8080 ca         1 UCK      -0.140600
     19 C19          1.1800     5.4030    -1.0940 ca         1 UCK       0.008400
     20 Cl2          0.0840     6.0300     0.0960 cl         1 UCK       0.015600
     21 C21          1.2900     6.0170    -2.3260 ca         1 UCK      -0.113000
     22 C22          2.1640     5.5180    -3.2760 ca         1 UCK      -0.073000
     23 C23          2.9340     4.4030    -2.9980 ca         1 UCK      -0.114000
     24 C24          2.8400     3.7840    -1.7690 ca         1 UCK      -0.080000
     25 O25          1.6940     4.2800     1.5130 o          1 UCK      -0.634100
     26 C26          1.9840     1.3390    -0.5460 c3         1 UCK       0.017000
     27 H01         -0.3140    -0.7410    -0.4920 ho         1 UCK       0.392000
     28 H02          1.8230    -0.8370    -0.5630 h1         1 UCK       0.011700
     29 H031         1.3540    -0.5910     2.1000 hc         1 UCK       0.035200
     30 H032         3.0080    -0.3590     1.4640 hc         1 UCK       0.035200
     31 H261         3.0120     1.2160    -0.8670 h1         1 UCK       0.035200
     32 H262         1.3680     1.6960    -1.3620 h1         1 UCK       0.035200
     33 H04          1.0250     1.6870     2.4070 h1         1 UCK       0.050700
     34 H06          2.4020     1.1070     4.4070 hn         1 UCK       0.176500
     35 H071         4.5100     2.9760     4.7390 h1         1 UCK       0.032200
     36 H072         5.2380     1.4110     4.3510 h1         1 UCK       0.032200
     37 H09          5.0230    -0.4760     5.8620 ha         1 UCK       0.113000
     38 H14          3.2710     3.3040     6.7980 ha         1 UCK       0.113000
     39 H10          4.6940    -1.2070     8.1940 ha         1 UCK       0.117000
     40 H13          2.9380     2.5740     9.1300 ha         1 UCK       0.117000
     41 H24          3.4440     2.9110    -1.5540 ha         1 UCK       0.119000
     42 H21          0.6890     6.8900    -2.5500 ha         1 UCK       0.116000
     43 H22          2.2440     6.0020    -4.2420 ha         1 UCK       0.104000
     44 H23          3.6180     4.0190    -3.7450 ha         1 UCK       0.105000
@<TRIPOS>BOND
     1     1     2 1   
     2     1    27 1   
     3     2     3 1   
     4     2    26 1   
     5     2    28 1   
     6     3     4 1   
     7     3    29 1   
     8     3    30 1   
     9     4     5 1   
    10     4    16 1   
    11     4    33 1   
    12     5     6 1   
    13     5    15 2   
    14     6     7 1   
    15     6    34 1   
    16     7     8 1   
    17     7    35 1   
    18     7    36 1   
    19     8     9 ar  
    20     8    14 ar  
    21     9    10 ar  
    22     9    37 1   
    23    10    11 ar  
    24    10    39 1   
    25    11    12 1   
    26    11    13 ar  
    27    13    14 ar  
    28    13    40 1   
    29    14    38 1   
    30    16    17 1   
    31    16    26 1   
    32    17    18 1   
    33    17    25 2   
    34    18    19 ar  
    35    18    24 ar  
    36    19    20 1   
    37    19    21 ar  
    38    21    22 ar  
    39    21    42 1   
    40    22    23 ar  
    41    22    43 1   
    42    23    24 ar  
    43    23    44 1   
    44    24    41 1   
    45    26    31 1   
    46    26    32 1   
@<TRIPOS>SUBSTRUCTURE
     1 UCK         1 TEMP              0 ****  ****    0 ROOT
