@<TRIPOS>MOLECULE
UCM
   45    52     1     0     0
SMALL
bcc


@<TRIPOS>ATOM
      1 N18          0.0000     0.0000     0.0000 ns         1 UCM      -0.171500
      2 C29          1.3450     0.0000     0.0000 c          1 UCM       0.652100
      3 O30          2.0540    -0.0030    -0.9870 o          1 UCM      -0.626000
      4 C10          1.8160     0.0000     1.3970 ca         1 UCM      -0.133100
      5 C09          3.0830    -0.0010     1.9940 cp         1 UCM       0.005500
      6 C15          4.4600     0.0710     1.5110 cp         1 UCM      -0.085500
      7 C16          5.2970     0.0410     2.6530 ca         1 UCM      -0.152700
      8 C34          6.6820     0.1140     2.5160 ca         1 UCM      -0.136500
      9 C33          7.1880     0.2050     1.2300 ca         1 UCM      -0.062500
     10 C32          6.3680     0.2250     0.1150 ca         1 UCM      -0.141000
     11 C31          4.9900     0.1580     0.2220 ca         1 UCM      -0.021500
     12 N17          4.5130    -0.0920     3.7720 na         1 UCM       0.337200
     13 C08          3.1810    -0.0620     3.3920 ca         1 UCM      -0.151200
     14 C07          2.0040    -0.0470     4.1970 ca         1 UCM      -0.151200
     15 N06          1.8980    -0.0640     5.5780 na         1 UCM       0.337200
     16 C14          0.5790     0.0940     5.9240 ca         1 UCM      -0.152700
     17 C13         -0.2010     0.1350     4.7420 cp         1 UCM      -0.085500
     18 C22         -1.5900     0.2650     4.7900 ca         1 UCM      -0.021500
     19 C21         -2.1650     0.3640     6.0450 ca         1 UCM      -0.141000
     20 C20         -1.4050     0.3350     7.2010 ca         1 UCM      -0.062500
     21 C19         -0.0270     0.1990     7.1740 ca         1 UCM      -0.136500
     22 C12          0.7600     0.0260     3.5930 cp         1 UCM       0.005500
     23 C11          0.6550     0.0100     2.1950 ca         1 UCM      -0.133100
     24 C27         -0.4810     0.0050     1.2560 c          1 UCM       0.652100
     25 O28         -1.6560     0.0050     1.5650 o          1 UCM      -0.626000
     26 C05          3.0330    -0.2690     6.4830 c3         1 UCM       0.173300
     27 O01          4.0370    -1.1090     5.8660 os         1 UCM      -0.372600
     28 C02          4.9660    -0.2910     5.1530 c3         1 UCM       0.173300
     29 C03          4.9920     1.0710     5.8750 c3         1 UCM      -0.074900
     30 C04          3.7190     1.0860     6.7480 c3         1 UCM      -0.074900
     31 H18         -0.5670    -0.0030    -0.8250 hn         1 UCM       0.199500
     32 H34          7.3360     0.1000     3.3800 ha         1 UCM       0.107500
     33 H33          8.2610     0.2600     1.0920 ha         1 UCM       0.098000
     34 H32          6.8170     0.2980    -0.8680 ha         1 UCM       0.105000
     35 H31          4.3520     0.1740    -0.6530 ha         1 UCM       0.139000
     36 H22         -2.1890     0.2880     3.8880 ha         1 UCM       0.139000
     37 H21         -3.2400     0.4720     6.1250 ha         1 UCM       0.105000
     38 H20         -1.9040     0.4160     8.1590 ha         1 UCM       0.098000
     39 H19          0.5560     0.1780     8.0880 ha         1 UCM       0.107500
     40 H05          2.6980    -0.7080     7.4140 h2         1 UCM       0.060200
     41 H02          5.9510    -0.7420     5.1650 h2         1 UCM       0.060200
     42 H031         4.9640     1.8790     5.1550 hc         1 UCM       0.039700
     43 H032         5.8750     1.1500     6.4970 hc         1 UCM       0.039700
     44 H041         3.9830     1.1760     7.7950 hc         1 UCM       0.039700
     45 H042         3.0700     1.9010     6.4510 hc         1 UCM       0.039700
@<TRIPOS>BOND
     1     1     2 1   
     2     1    24 1   
     3     1    31 1   
     4     2     3 2   
     5     2     4 1   
     6     4     5 ar  
     7     4    23 ar  
     8     5     6 1   
     9     5    13 ar  
    10     6     7 ar  
    11     6    11 ar  
    12     7     8 ar  
    13     7    12 1   
    14     8     9 ar  
    15     8    32 1   
    16     9    10 ar  
    17     9    33 1   
    18    10    11 ar  
    19    10    34 1   
    20    11    35 1   
    21    12    13 1   
    22    12    28 1   
    23    13    14 ar  
    24    14    15 1   
    25    14    22 ar  
    26    15    16 1   
    27    15    26 1   
    28    16    17 ar  
    29    16    21 ar  
    30    17    18 ar  
    31    17    22 1   
    32    18    19 ar  
    33    18    36 1   
    34    19    20 ar  
    35    19    37 1   
    36    20    21 ar  
    37    20    38 1   
    38    21    39 1   
    39    22    23 ar  
    40    23    24 1   
    41    24    25 2   
    42    26    27 1   
    43    26    30 1   
    44    26    40 1   
    45    27    28 1   
    46    28    29 1   
    47    28    41 1   
    48    29    30 1   
    49    29    42 1   
    50    29    43 1   
    51    30    44 1   
    52    30    45 1   
@<TRIPOS>SUBSTRUCTURE
     1 UCM         1 TEMP              0 ****  ****    0 ROOT
