@<TRIPOS>MOLECULE
molecule
   62    69     1     0     0
SMALL
bcc


@<TRIPOS>ATOM
      1 O37          0.0000     0.0000     0.0000 oh         1 UCN      -0.586800
      2 C9           1.4290     0.0000     0.0000 c3         1 UCN       0.356800
      3 N1           1.9350     0.0000     1.3770 ns         1 UCN      -0.613900
      4 C8           2.6650    -1.1120     1.5650 c          1 UCN       0.732100
      5 O5           3.2240    -1.4080     2.6040 o          1 UCN      -0.639500
      6 C7           2.6940    -1.9210     0.3370 ca         1 UCN      -0.137600
      7 C6           3.3130    -3.1570     0.0340 cp         1 UCN      -0.010000
      8 C5           4.1270    -4.1080     0.7830 cp         1 UCN      -0.081000
      9 C20          4.4370    -5.1670    -0.1040 ca         1 UCN      -0.005200
     10 C1           5.2110    -6.2450     0.3220 ca         1 UCN      -0.164000
     11 C2           5.6520    -6.2250     1.6350 ca         1 UCN      -0.094000
     12 C3           5.3490    -5.1890     2.5010 ca         1 UCN      -0.167000
     13 C4           4.5820    -4.1070     2.1030 ca         1 UCN      -0.049000
     14 N3           3.8680    -4.8530    -1.3370 na         1 UCN      -0.105300
     15 C19          3.1810    -3.6940    -1.2460 ca         1 UCN      -0.031200
     16 C18          2.4290    -3.0260    -2.2170 ca         1 UCN       0.018800
     17 N2           2.1630    -3.3740    -3.5320 na         1 UCN      -0.060300
     18 C17          1.3550    -2.4150    -4.0930 ca         1 UCN       0.039800
     19 C12          1.1030    -1.4100    -3.1310 cp         1 UCN      -0.084000
     20 C13          0.3120    -0.3000    -3.4260 ca         1 UCN      -0.063000
     21 C14         -0.2170    -0.2320    -4.7050 ca         1 UCN      -0.168000
     22 C15          0.0250    -1.2160    -5.6470 ca         1 UCN      -0.101000
     23 C16          0.8100    -2.3240    -5.3730 ca         1 UCN      -0.153000
     24 C11          1.8040    -1.8090    -1.9090 cp         1 UCN      -0.033000
     25 C10          1.9470    -1.2650    -0.6380 ca         1 UCN      -0.044300
     26 C21          2.6860    -4.5700    -4.1860 c3         1 UCN       0.270500
     27 O4           3.9430    -4.9750    -3.7230 os         1 UCN      -0.357600
     28 C25          3.9650    -5.6960    -2.5250 c3         1 UCN       0.258800
     29 C24          2.9730    -6.8450    -2.4710 c3         1 UCN      -0.165400
     30 C23          1.5750    -6.3300    -2.8330 c3         1 UCN       0.125500
     31 N4           1.1440    -5.3250    -1.8530 n7         1 UCN      -0.794200
     32 C28          0.4230    -6.0470    -0.7980 c3         1 UCN       0.138100
     33 C22          1.6610    -5.6940    -4.2270 c3         1 UCN       0.107100
     34 O6           0.3780    -5.1570    -4.5560 os         1 UCN      -0.362600
     35 C27         -0.3320    -6.1820    -5.2530 c3         1 UCN       0.109700
     36 C26          2.8910    -4.1810    -5.6520 c3         1 UCN      -0.114100
     37 H37         -0.3140     0.8270     0.3260 ho         1 UCN       0.402000
     38 H9           1.8070     0.8640    -0.5330 h2         1 UCN       0.054700
     39 HN1          1.7630     0.7090     2.0630 hn         1 UCN       0.345500
     40 H1           5.4560    -7.0640    -0.3440 ha         1 UCN       0.130000
     41 H2           6.2560    -7.0490     1.9970 ha         1 UCN       0.128000
     42 H3           5.7210    -5.2260     3.5180 ha         1 UCN       0.132000
     43 H4           4.3470    -3.2970     2.7830 ha         1 UCN       0.179000
     44 H13          0.1200     0.4720    -2.6910 ha         1 UCN       0.139000
     45 H14         -0.8390     0.6130    -4.9740 ha         1 UCN       0.126000
     46 H15         -0.4130    -1.1160    -6.6330 ha         1 UCN       0.125000
     47 H16          0.9910    -3.0870    -6.1200 ha         1 UCN       0.143000
     48 H25          4.9460    -6.1540    -2.4800 h2         1 UCN       0.089700
     49 H241         3.2700    -7.6100    -3.1780 hc         1 UCN       0.071200
     50 H242         2.9560    -7.2580    -1.4690 hc         1 UCN       0.071200
     51 H23          0.8750    -7.1560    -2.8520 h1         1 UCN       0.070700
     52 HN4          1.9480    -4.8750    -1.4610 hn         1 UCN       0.378800
     53 H281         0.2160    -5.3730     0.0250 h1         1 UCN       0.032700
     54 H282         1.0320    -6.8710    -0.4440 h1         1 UCN       0.032700
     55 H283        -0.5090    -6.4310    -1.1940 h1         1 UCN       0.032700
     56 H22          1.9560    -6.4380    -4.9570 h1         1 UCN       0.058700
     57 H271         0.1930    -6.4260    -6.1680 h1         1 UCN       0.032700
     58 H272        -1.3300    -5.8320    -5.4910 h1         1 UCN       0.032700
     59 H273        -0.3980    -7.0640    -4.6280 h1         1 UCN       0.032700
     60 H261         3.7480    -4.7100    -6.0500 hc         1 UCN       0.062700
     61 H262         3.0610    -3.1130    -5.7220 hc         1 UCN       0.062700
     62 H263         2.0080    -4.4440    -6.2220 hc         1 UCN       0.062700
@<TRIPOS>BOND
     1     1     2 1
     2     1    37 1
     3     2     3 1
     4     2    25 1
     5     2    38 1
     6     3     4 1
     7     3    39 1
     8     4     5 2
     9     4     6 1
    10     6     7 ar
    11     6    25 ar
    12     7     8 1
    13     7    15 ar
    14     8     9 ar
    15     8    13 ar
    16     9    10 ar
    17     9    14 1
    18    10    11 ar
    19    10    40 1
    20    11    12 ar
    21    11    41 1
    22    12    13 ar
    23    12    42 1
    24    13    43 1
    25    14    15 1
    26    14    28 1
    27    15    16 ar
    28    16    17 1
    29    16    24 ar
    30    17    18 1
    31    17    26 1
    32    18    19 ar
    33    18    23 ar
    34    19    20 ar
    35    19    24 1
    36    20    21 ar
    37    20    44 1
    38    21    22 ar
    39    21    45 1
    40    22    23 ar
    41    22    46 1
    42    23    47 1
    43    24    25 ar
    44    26    27 1
    45    26    33 1
    46    26    36 1
    47    27    28 1
    48    28    29 1
    49    28    48 1
    50    29    30 1
    51    29    49 1
    52    29    50 1
    53    30    31 1
    54    30    33 1
    55    30    51 1
    56    31    32 1
    57    31    52 1
    58    32    53 1
    59    32    54 1
    60    32    55 1
    61    33    34 1
    62    33    56 1
    63    34    35 1
    64    35    57 1
    65    35    58 1
    66    35    59 1
    67    36    60 1
    68    36    61 1
    69    36    62 1
@<TRIPOS>SUBSTRUCTURE
     1 UCN         1 TEMP              0 ****  ****    0 ROOT
