@<TRIPOS>MOLECULE
molecule
   41    42     1     0     0
SMALL
bcc


@<TRIPOS>ATOM
      1 N1           0.0000     0.0000     0.0000 n          1 UCP      -0.332000
      2 C2           1.3450     0.0000     0.0000 c          1 UCP       0.806500
      3 O2           1.9440     0.0100    -1.0570 o          1 UCP      -0.655500
      4 N3           2.0370     0.0000     1.1550 ns         1 UCP      -0.573500
      5 C4           1.3870    -0.0110     2.3370 c          1 UCP       0.677700
      6 O4           2.0120    -0.0160     3.3820 o          1 UCP      -0.757500
      7 C5          -0.0280    -0.0180     2.3510 cc         1 UCP      -0.399200
      8 C6          -0.6970    -0.0120     1.1780 cd         1 UCP      -0.141400
      9 C1'         -0.7250     0.0050    -1.2710 c3         1 UCP       0.316500
     10 C2'         -0.3690     1.2660    -2.0890 c3         1 UCP      -0.152400
     11 C3'         -0.3340     0.7690    -3.5520 c3         1 UCP       0.107100
     12 O3'         -1.3160     1.4510    -4.3350 oh         1 UCP      -0.617800
     13 C4'         -0.6720    -0.7340    -3.4480 c3         1 UCP       0.137100
     14 O4'         -0.3040    -1.1020    -2.0990 os         1 UCP      -0.354600
     15 C5'          0.1410    -1.5410    -4.4610 c3         1 UCP       0.171400
     16 O5'         -0.1360    -2.9330    -4.2950 os         1 UCP      -0.540200
     17 PA           0.7490    -3.7180    -5.3860 p5         1 UCP       1.249800
     18 O1A          2.1830    -3.4370    -5.1520 o          1 UCP      -0.789000
     19 O2A          0.3390    -3.2260    -6.8630 o          1 UCP      -0.789000
     20 O3A          0.4840    -5.2990    -5.2560 os         1 UCP      -0.657800
     21 PB           1.3960    -6.0180    -6.3700 p5         1 UCP       1.133600
     22 O1B          2.8200    -5.7020    -6.1210 o          1 UCP      -0.716500
     23 O2B          0.9750    -5.4880    -7.8310 o          1 UCP      -0.716500
     24 CC           1.1510    -7.8230    -6.2860 c3         1 UCP      -0.407800
     25 PG           2.1830    -8.6360    -7.5480 p5         1 UCP       1.111700
     26 O1G          3.6070    -8.3210    -7.2990 o          1 UCP      -0.837833
     27 O2G          1.9670   -10.2300    -7.4730 o          1 UCP      -0.837833
     28 O3G          1.7630    -8.1070    -9.0070 o          1 UCP      -0.837833
     29 HN3          3.0370     0.0000     1.1360 hn         1 UCP       0.331500
     30 H5          -0.5670    -0.0270     3.2900 ha         1 UCP       0.123000
     31 H6          -1.7800    -0.0140     1.1690 h4         1 UCP       0.120000
     32 H1'         -1.7940    -0.0410    -1.1020 h2         1 UCP       0.044700
     33 H2'1        -1.1320     2.0250    -1.9660 hc         1 UCP       0.049700
     34 H2'2         0.6030     1.6450    -1.7960 hc         1 UCP       0.049700
     35 H3'          0.6550     0.9050    -3.9720 h1         1 UCP       0.067700
     36 HO'3        -0.8940     2.1010    -4.8720 ho         1 UCP       0.384000
     37 H4'         -1.7330    -0.8890    -3.6010 h1         1 UCP       0.047700
     38 H5'1        -0.1280    -1.2370    -5.4650 h1         1 UCP       0.063700
     39 H5'2         1.1980    -1.3620    -4.3010 h1         1 UCP       0.063700
     40 HCC1         0.1080    -8.0550    -6.4670 hc         1 UCP       0.029200
     41 HCC2         1.4340    -8.1800    -5.3030 hc         1 UCP       0.029200
@<TRIPOS>BOND
     1     1     2 1
     2     1     8 1
     3     1     9 1
     4     2     3 2
     5     2     4 1
     6     4     5 1
     7     4    29 1
     8     5     6 2
     9     5     7 1
    10     7     8 2
    11     7    30 1
    12     8    31 1
    13     9    10 1
    14     9    14 1
    15     9    32 1
    16    10    11 1
    17    10    33 1
    18    10    34 1
    19    11    12 1
    20    11    13 1
    21    11    35 1
    22    12    36 1
    23    13    14 1
    24    13    15 1
    25    13    37 1
    26    15    16 1
    27    15    38 1
    28    15    39 1
    29    16    17 1
    30    17    18 1
    31    17    19 1
    32    17    20 1
    33    20    21 1
    34    21    22 1
    35    21    23 1
    36    21    24 1
    37    24    25 1
    38    24    40 1
    39    24    41 1
    40    25    26 1
    41    25    27 1
    42    25    28 1
@<TRIPOS>SUBSTRUCTURE
     1 UCP         1 TEMP              0 ****  ****    0 ROOT
