@<TRIPOS>MOLECULE
molecule
   61    62     1     0     0
SMALL
bcc


@<TRIPOS>ATOM
      1 C            0.0000     0.0000     0.0000 c          1 UDB       0.663100
      2 N            1.9950     1.1960    -0.6910 ns         1 UDB      -0.580900
      3 O           -0.6070     1.0220     0.2440 o          1 UDB      -0.603100
      4 F1           6.8580    -0.0870    -4.5430 f          1 UDB      -0.132400
      5 F2           7.6730     4.4360    -3.3890 f          1 UDB      -0.132400
      6 CA           1.5060     0.0000     0.0000 c3         1 UDB       0.066700
      7 CB           2.0160     0.0000     1.4420 c3         1 UDB      -0.081000
      8 CAA          1.3710    -1.1550     2.2110 c3         1 UDB      -0.086100
      9 CAC          3.5370    -0.1720     1.4450 c3         1 UDB      -0.086100
     10 CAD          1.6520     1.3270     2.1120 c3         1 UDB      -0.086100
     11 CAG          3.2170     1.1940    -1.2600 c          1 UDB       0.785100
     12 OAH          3.9140     0.2000    -1.2000 o          1 UDB      -0.649100
     13 NAI          3.6660     2.2940    -1.8960 ns         1 UDB      -0.489100
     14 CAJ          4.8780     2.2550    -2.5930 ca         1 UDB       0.129600
     15 CAK          5.2740     1.0870    -3.2320 ca         1 UDB      -0.204500
     16 CAL          6.4730     1.0490    -3.9210 ca         1 UDB       0.178400
     17 CAM          7.2780     2.1740    -3.9740 ca         1 UDB      -0.231000
     18 CAN          6.8850     3.3390    -3.3380 ca         1 UDB       0.178400
     19 CAP          5.6840     3.3830    -2.6510 ca         1 UDB      -0.204500
     20 NAS         -0.6740    -1.1360    -0.2660 n          1 UDB      -0.463800
     21 CAT          0.0520    -2.3980    -0.4280 c3         1 UDB       0.026000
     22 CAU         -0.5140    -3.4280     0.5160 c          1 UDB       0.650100
     23 OAV         -1.4250    -3.1330     1.2610 o          1 UDB      -0.563100
     24 NAW         -0.0100    -4.6780     0.5300 ns         1 UDB      -0.471400
     25 OAX         -0.5420    -5.6460     1.4170 oh         1 UDB      -0.357100
     26 CAY         -2.1340    -1.1100    -0.3930 c3         1 UDB       0.101000
     27 CAZ         -2.5150    -0.9840    -1.8700 c3         1 UDB      -0.096700
     28 CBA         -4.0430    -1.0690    -2.0300 c3         1 UDB      -0.081400
     29 CBB         -4.4940     0.2640    -2.6600 c3         1 UDB      -0.083400
     30 CBC         -3.2290     0.7900    -3.3830 c3         1 UDB      -0.083400
     31 CBD         -2.0900     0.3970    -2.4100 c3         1 UDB      -0.081400
     32 HN           1.4080     2.0030    -0.7690 hn         1 UDB       0.330500
     33 HA           1.8670    -0.8850    -0.5110 h1         1 UDB       0.079700
     34 HAA          1.7380    -1.1590     3.2310 hc         1 UDB       0.043256
     35 HAAA         0.2950    -1.0290     2.2160 hc         1 UDB       0.043256
     36 HAAB         1.6230    -2.0930     1.7330 hc         1 UDB       0.043256
     37 HAC          3.8140    -0.9430     0.7370 hc         1 UDB       0.043256
     38 HACA         3.8650    -0.4580     2.4370 hc         1 UDB       0.043256
     39 HACB         4.0070     0.7620     1.1650 hc         1 UDB       0.043256
     40 HAD          2.0690     2.1470     1.5400 hc         1 UDB       0.043256
     41 HADA         0.5740     1.4270     2.1530 hc         1 UDB       0.043256
     42 HADB         2.0550     1.3460     3.1180 hc         1 UDB       0.043256
     43 HNAI         3.1200     3.1330    -1.8890 hn         1 UDB       0.326500
     44 HAK          4.6160     0.2260    -3.2420 ha         1 UDB       0.162000
     45 HAM          8.2170     2.1430    -4.5140 ha         1 UDB       0.160000
     46 HAP          5.3580     4.3070    -2.1890 ha         1 UDB       0.162000
     47 HAT         -0.0520    -2.7470    -1.4480 h1         1 UDB       0.075700
     48 HATA         1.1010    -2.2420    -0.2050 h1         1 UDB       0.075700
     49 HNAW         0.7220    -4.9300    -0.1040 hn         1 UDB       0.320500
     50 HOAX        -0.2370    -6.5030     1.1670 ho         1 UDB       0.401000
     51 HAY         -2.5290    -0.2640     0.1550 h1         1 UDB       0.084700
     52 HAYA        -2.5480    -2.0260     0.0090 h1         1 UDB       0.084700
     53 HAZ         -2.0400    -1.7670    -2.4490 hc         1 UDB       0.043700
     54 HBA         -4.3010    -1.8930    -2.6840 hc         1 UDB       0.048950
     55 HBAA        -4.5100    -1.1970    -1.0610 hc         1 UDB       0.048950
     56 HBB         -5.2920     0.0940    -3.3730 hc         1 UDB       0.044450
     57 HBBA        -4.8060     0.9590    -1.8900 hc         1 UDB       0.044450
     58 HBC         -3.1020     0.2970    -4.3390 hc         1 UDB       0.044450
     59 HBCA        -3.2770     1.8660    -3.5010 hc         1 UDB       0.044450
     60 HBD         -2.0210     1.1140    -1.6000 hc         1 UDB       0.048950
     61 HBDA        -1.1490     0.3230    -2.9410 hc         1 UDB       0.048950
@<TRIPOS>BOND
     1     1     3 2
     2     1     6 1
     3     1    20 1
     4     2     6 1
     5     2    11 1
     6     4    16 1
     7     5    18 1
     8     6     7 1
     9     7     8 1
    10     7     9 1
    11     7    10 1
    12    11    12 2
    13    11    13 1
    14    13    14 1
    15    14    15 ar
    16    14    19 ar
    17    15    16 ar
    18    16    17 ar
    19    17    18 ar
    20    18    19 ar
    21    20    21 1
    22    20    26 1
    23    21    22 1
    24    22    23 2
    25    22    24 1
    26    24    25 1
    27    26    27 1
    28    27    28 1
    29    27    31 1
    30    28    29 1
    31    29    30 1
    32    30    31 1
    33     2    32 1
    34     6    33 1
    35     8    34 1
    36     8    35 1
    37     8    36 1
    38     9    37 1
    39     9    38 1
    40     9    39 1
    41    10    40 1
    42    10    41 1
    43    10    42 1
    44    13    43 1
    45    15    44 1
    46    17    45 1
    47    19    46 1
    48    21    47 1
    49    21    48 1
    50    24    49 1
    51    25    50 1
    52    26    51 1
    53    26    52 1
    54    27    53 1
    55    28    54 1
    56    28    55 1
    57    29    56 1
    58    29    57 1
    59    30    58 1
    60    30    59 1
    61    31    60 1
    62    31    61 1
@<TRIPOS>SUBSTRUCTURE
     1 UDB         1 TEMP              0 ****  ****    0 ROOT
