@<TRIPOS>MOLECULE
UDB
   61    62     1     0     0
SMALL
bcc


@<TRIPOS>ATOM
      1 C            0.0000     0.0000     0.0000 c          1 UDB       0.581100
      2 N            1.9950     1.1960    -0.6910 ns         1 UDB      -0.184900
      3 O           -0.6070     1.0220     0.2440 o          1 UDB      -0.643100
      4 F1           6.8580    -0.0870    -4.5430 f          1 UDB      -0.124400
      5 F2           7.6730     4.4360    -3.3890 f          1 UDB      -0.124400
      6 CA           1.5060     0.0000     0.0000 c3         1 UDB      -0.047300
      7 CB           2.0160     0.0000     1.4420 c3         1 UDB      -0.073000
      8 CAA          1.3710    -1.1550     2.2110 c3         1 UDB      -0.011100
      9 CAC          3.5370    -0.1720     1.4450 c3         1 UDB      -0.011100
     10 CAD          1.6520     1.3270     2.1120 c3         1 UDB      -0.011100
     11 CAG          3.2170     1.1940    -1.2600 c          1 UDB       0.565100
     12 OAH          3.9140     0.2000    -1.2000 o          1 UDB      -0.699100
     13 NAI          3.6660     2.2940    -1.8960 ns         1 UDB      -0.052100
     14 CAJ          4.8780     2.2550    -2.5930 ca         1 UDB      -0.015400
     15 CAK          5.2740     1.0870    -3.2320 ca         1 UDB      -0.169500
     16 CAL          6.4730     1.0490    -3.9210 ca         1 UDB       0.151900
     17 CAM          7.2780     2.1740    -3.9740 ca         1 UDB      -0.189000
     18 CAN          6.8850     3.3390    -3.3380 ca         1 UDB       0.151900
     19 CAP          5.6840     3.3830    -2.6510 ca         1 UDB      -0.169500
     20 NAS         -0.6740    -1.1360    -0.2660 n          1 UDB      -0.100800
     21 CAT          0.0520    -2.3980    -0.4280 c3         1 UDB      -0.051000
     22 CAU         -0.5140    -3.4280     0.5160 c          1 UDB       0.553100
     23 OAV         -1.4250    -3.1330     1.2610 o          1 UDB      -0.609100
     24 NAW         -0.0100    -4.6780     0.5300 ns         1 UDB      -0.047400
     25 OAX         -0.5420    -5.6460     1.4170 oh         1 UDB      -0.434100
     26 CAY         -2.1340    -1.1100    -0.3930 c3         1 UDB       0.018000
     27 CAZ         -2.5150    -0.9840    -1.8700 c3         1 UDB      -0.068700
     28 CBA         -4.0430    -1.0690    -2.0300 c3         1 UDB      -0.031900
     29 CBB         -4.4940     0.2640    -2.6600 c3         1 UDB      -0.022900
     30 CBC         -3.2290     0.7900    -3.3830 c3         1 UDB      -0.022900
     31 CBD         -2.0900     0.3970    -2.4100 c3         1 UDB      -0.031900
     32 HN           1.4080     2.0030    -0.7690 hn         1 UDB       0.190500
     33 HA           1.8670    -0.8850    -0.5110 h1         1 UDB       0.064700
     34 HAA          1.7380    -1.1590     3.2310 hc         1 UDB       0.015700
     35 HAAA         0.2950    -1.0290     2.2160 hc         1 UDB       0.015700
     36 HAAB         1.6230    -2.0930     1.7330 hc         1 UDB       0.015700
     37 HAC          3.8140    -0.9430     0.7370 hc         1 UDB       0.015700
     38 HACA         3.8650    -0.4580     2.4370 hc         1 UDB       0.015700
     39 HACB         4.0070     0.7620     1.1650 hc         1 UDB       0.015700
     40 HAD          2.0690     2.1470     1.5400 hc         1 UDB       0.015700
     41 HADA         0.5740     1.4270     2.1530 hc         1 UDB       0.015700
     42 HADB         2.0550     1.3460     3.1180 hc         1 UDB       0.015700
     43 HNAI         3.1200     3.1330    -1.8890 hn         1 UDB       0.168500
     44 HAK          4.6160     0.2260    -3.2420 ha         1 UDB       0.139500
     45 HAM          8.2170     2.1430    -4.5140 ha         1 UDB       0.135000
     46 HAP          5.3580     4.3070    -2.1890 ha         1 UDB       0.139500
     47 HAT         -0.0520    -2.7470    -1.4480 h1         1 UDB       0.049700
     48 HATA         1.1010    -2.2420    -0.2050 h1         1 UDB       0.049700
     49 HNAW         0.7220    -4.9300    -0.1040 hn         1 UDB       0.156500
     50 HOAX        -0.2370    -6.5030     1.1670 ho         1 UDB       0.395000
     51 HAY         -2.5290    -0.2640     0.1550 h1         1 UDB       0.063700
     52 HAYA        -2.5480    -2.0260     0.0090 h1         1 UDB       0.063700
     53 HAZ         -2.0400    -1.7670    -2.4490 hc         1 UDB       0.018700
     54 HBA         -4.3010    -1.8930    -2.6840 hc         1 UDB       0.021950
     55 HBAA        -4.5100    -1.1970    -1.0610 hc         1 UDB       0.021950
     56 HBB         -5.2920     0.0940    -3.3730 hc         1 UDB       0.014450
     57 HBBA        -4.8060     0.9590    -1.8900 hc         1 UDB       0.014450
     58 HBC         -3.1020     0.2970    -4.3390 hc         1 UDB       0.014450
     59 HBCA        -3.2770     1.8660    -3.5010 hc         1 UDB       0.014450
     60 HBD         -2.0210     1.1140    -1.6000 hc         1 UDB       0.021950
     61 HBDA        -1.1490     0.3230    -2.9410 hc         1 UDB       0.021950
@<TRIPOS>BOND
     1     1     3 2   
     2     1     6 1   
     3     1    20 1   
     4     2     6 1   
     5     2    11 1   
     6     2    32 1   
     7     4    16 1   
     8     5    18 1   
     9     6     7 1   
    10     6    33 1   
    11     7     8 1   
    12     7     9 1   
    13     7    10 1   
    14     8    34 1   
    15     8    35 1   
    16     8    36 1   
    17     9    37 1   
    18     9    38 1   
    19     9    39 1   
    20    10    40 1   
    21    10    41 1   
    22    10    42 1   
    23    11    12 2   
    24    11    13 1   
    25    13    14 1   
    26    13    43 1   
    27    14    15 ar  
    28    14    19 ar  
    29    15    16 ar  
    30    15    44 1   
    31    16    17 ar  
    32    17    18 ar  
    33    17    45 1   
    34    18    19 ar  
    35    19    46 1   
    36    20    21 1   
    37    20    26 1   
    38    21    22 1   
    39    21    47 1   
    40    21    48 1   
    41    22    23 2   
    42    22    24 1   
    43    24    25 1   
    44    24    49 1   
    45    25    50 1   
    46    26    27 1   
    47    26    51 1   
    48    26    52 1   
    49    27    28 1   
    50    27    31 1   
    51    27    53 1   
    52    28    29 1   
    53    28    54 1   
    54    28    55 1   
    55    29    30 1   
    56    29    56 1   
    57    29    57 1   
    58    30    31 1   
    59    30    58 1   
    60    30    59 1   
    61    31    60 1   
    62    31    61 1   
@<TRIPOS>SUBSTRUCTURE
     1 UDB         1 TEMP              0 ****  ****    0 ROOT
