@<TRIPOS>MOLECULE
UDD
   53    56     1     0     0
SMALL
bcc


@<TRIPOS>ATOM
      1 CAJ          0.0000     0.0000     0.0000 ca         1 UDD      -0.201500
      2 CAL          1.3810     0.0000     0.0000 ca         1 UDD       0.010000
      3 CAZ          2.0740     0.0000     1.1960 ca         1 UDD      -0.268300
      4 CBF          3.5810    -0.0000     1.1920 c3         1 UDD       0.646200
      5 FAB          4.0470     1.3190     1.1910 f          1 UDD      -0.210967
      6 FAC          4.0510    -0.6600     2.3330 f          1 UDD      -0.210967
      7 FAA          4.0440    -0.6590     0.0490 f          1 UDD      -0.210967
      8 CAM          1.3880    -0.0000     2.3970 ca         1 UDD       0.010000
      9 CAK          0.0070    -0.0010     2.4050 ca         1 UDD      -0.201500
     10 CAX         -0.6930    -0.0010     1.2050 ca         1 UDD       0.094600
     11 NBE         -2.0900    -0.0010     1.2080 nh         1 UDD      -0.205400
     12 CAY         -2.7920    -0.1190     0.0050 ca         1 UDD      -0.094700
     13 CAI         -2.6890     0.8680    -0.9730 ca         1 UDD      -0.099000
     14 CAG         -3.4040     0.7080    -2.1470 ca         1 UDD      -0.207300
     15 CAH         -4.1910    -0.4180    -2.3110 ca         1 UDD       0.401200
     16 NAV         -4.2670    -1.3340    -1.3660 nb         1 UDD      -0.565000
     17 CAP         -3.5990    -1.2240    -0.2350 ca         1 UDD       0.386200
     18 CBC         -2.8190     0.1220     2.4730 c3         1 UDD       0.144500
     19 CAS         -2.4930     1.4700     3.1220 c3         1 UDD      -0.057900
     20 CAU         -2.9630     2.6000     2.2030 c3         1 UDD       0.109800
     21 CAR         -4.3250     0.0440     2.2050 c3         1 UDD      -0.057900
     22 CAT         -4.7410     1.2150     1.3130 c3         1 UDD       0.109800
     23 NBD         -4.4090     2.4810     1.9790 nh         1 UDD      -0.452300
     24 CBB         -4.8910     3.5650     1.2550 ca         1 UDD       0.521200
     25 NAW         -4.0590     4.5220     0.8720 nb         1 UDD      -0.636000
     26 CAQ         -4.4770     5.5670     0.1850 ca         1 UDD       0.493200
     27 CBA         -5.8050     5.7020    -0.1620 ca         1 UDD      -0.373600
     28 CBG         -6.2700     6.9020    -0.9480 c3         1 UDD       0.652200
     29 FAE         -5.1780     7.7380    -1.2100 f          1 UDD      -0.207300
     30 FAF         -6.8330     6.4780    -2.1560 f          1 UDD      -0.207300
     31 FAD         -7.2260     7.6030    -0.2070 f          1 UDD      -0.207300
     32 CAN         -6.7120     4.7210     0.2200 ca         1 UDD       0.022000
     33 CAO         -6.2440     3.6340     0.9350 ca         1 UDD      -0.257300
     34 HAJ         -0.5420     0.0010    -0.9380 ha         1 UDD       0.130000
     35 HAL          1.9220     0.0010    -0.9390 ha         1 UDD       0.114500
     36 HAM          1.9340    -0.0000     3.3320 ha         1 UDD       0.114500
     37 HAK         -0.5300    -0.0010     3.3460 ha         1 UDD       0.130000
     38 HBC         -2.5300    -0.6790     3.1420 h1         1 UDD       0.036700
     39 HAI         -2.0650     1.7410    -0.8180 ha         1 UDD       0.132000
     40 HAP         -3.6870    -1.9980     0.5180 h4         1 UDD      -0.004900
     41 HAG         -3.3480     1.4550    -2.9290 ha         1 UDD       0.120000
     42 HAH         -4.7540    -0.5480    -3.2280 h4         1 UDD      -0.013900
     43 HAS1        -1.4230     1.5490     3.2720 hc         1 UDD       0.041450
     44 HAS2        -3.0050     1.5440     4.0740 hc         1 UDD       0.041450
     45 HAR1        -4.8610     0.0980     3.1450 hc         1 UDD       0.041450
     46 HAR2        -4.5540    -0.8900     1.7060 hc         1 UDD       0.041450
     47 HAU1        -2.4450     2.5310     1.2540 h1         1 UDD       0.039700
     48 HAU2        -2.7490     3.5540     2.6690 h1         1 UDD       0.039700
     49 HAT1        -5.8090     1.1710     1.1370 h1         1 UDD       0.039700
     50 HAT2        -4.2120     1.1550     0.3700 h1         1 UDD       0.039700
     51 HAO         -6.9230     2.8500     1.2490 ha         1 UDD       0.132000
     52 HAQ         -3.7670     6.3300    -0.1110 h4         1 UDD      -0.003900
     53 HAN         -7.7600     4.8030    -0.0420 ha         1 UDD       0.119000
@<TRIPOS>BOND
     1     1     2 ar  
     2     1    10 ar  
     3     1    34 1   
     4     2     3 ar  
     5     2    35 1   
     6     3     4 1   
     7     3     8 ar  
     8     4     5 1   
     9     4     6 1   
    10     4     7 1   
    11     8     9 ar  
    12     8    36 1   
    13     9    10 ar  
    14     9    37 1   
    15    10    11 1   
    16    11    12 1   
    17    11    18 1   
    18    12    13 ar  
    19    12    17 ar  
    20    13    14 ar  
    21    13    39 1   
    22    14    15 ar  
    23    14    41 1   
    24    15    16 ar  
    25    15    42 1   
    26    16    17 ar  
    27    17    40 1   
    28    18    19 1   
    29    18    21 1   
    30    18    38 1   
    31    19    20 1   
    32    19    43 1   
    33    19    44 1   
    34    20    23 1   
    35    20    47 1   
    36    20    48 1   
    37    21    22 1   
    38    21    45 1   
    39    21    46 1   
    40    22    23 1   
    41    22    49 1   
    42    22    50 1   
    43    23    24 1   
    44    24    25 ar  
    45    24    33 ar  
    46    25    26 ar  
    47    26    27 ar  
    48    26    52 1   
    49    27    28 1   
    50    27    32 ar  
    51    28    29 1   
    52    28    30 1   
    53    28    31 1   
    54    32    33 ar  
    55    32    53 1   
    56    33    51 1   
@<TRIPOS>SUBSTRUCTURE
     1 UDD         1 TEMP              0 ****  ****    0 ROOT
