@<TRIPOS>MOLECULE
UDH
   58    59     1     0     0
SMALL
bcc


@<TRIPOS>ATOM
      1 N1         -0.4360    0.2670   -0.3550 n         1 UDH     -0.378000
      2 C2          0.8100   -0.4140   -0.3060 c         1 UDH      0.811500
      3 N3          1.1560   -1.0870    0.8780 n         1 UDH     -0.591500
      4 C4          0.3500   -1.0770    2.0310 c         1 UDH      0.718700
      5 C5         -0.8960   -0.3140    1.9360 cc        1 UDH     -0.336200
      6 C6         -1.2230    0.3270    0.7830 cd        1 UDH      0.065600
      7 O2          1.5840   -0.4520   -1.2880 o         1 UDH     -0.646500
      8 O4          0.7380   -1.7000    3.0360 o         1 UDH     -0.633500
      9 C1B        -0.7730    1.0500   -1.5450 c3        1 UDH      0.257500
     10 C2B        -2.1640    0.6720   -2.1560 c3        1 UDH      0.112100
     11 O2'        -2.0050    0.4140   -3.5300 oh        1 UDH     -0.584800
     12 C3B        -3.0720    1.8750   -1.8240 c3        1 UDH      0.111100
     13 C4B        -2.1250    2.9860   -1.3240 c3        1 UDH      0.061100
     14 O4'        -0.7970    2.4420   -1.2270 os        1 UDH     -0.419600
     15 O3'        -3.7340    2.2720   -3.0030 oh        1 UDH     -0.630800
     16 C5B        -2.5240    3.5790    0.0390 c3        1 UDH      0.199400
     17 O5'        -3.1990    4.7850   -0.1070 os        1 UDH     -0.589200
     18 PA         -4.8550    4.7180   -0.0280 p5        1 UDH      1.595800
     19 O1A        -5.2900    4.8920    1.3540 o         1 UDH     -0.843000
     20 O2A        -5.2020    3.6250   -0.9540 o         1 UDH     -0.843000
     21 O3A        -5.0740    6.1620   -0.8470 os        1 UDH     -0.808800
     22 PB         -5.1950    7.4970   -1.6550 p5        1 UDH      1.794500
     23 O1B        -3.9080    8.2770   -1.1370 oh        1 UDH     -0.773400
     24 O2B        -4.6880    7.0850   -3.1290 os        1 UDH     -0.603200
     25 O3B        -6.4550    8.2220   -1.6920 o         1 UDH     -0.851300
     26 C1'        -5.6540    6.6920   -4.0720 c3        1 UDH      0.185400
     27 C2'        -5.5400    7.5270   -5.3410 c3        1 UDH     -0.095400
     28 C3'        -6.2010    8.8870   -5.2360 c3        1 UDH     -0.085400
     29 C4'        -5.1860   10.0100   -5.1740 c3        1 UDH     -0.070400
     30 C5'        -5.8570   11.3350   -4.8910 c3        1 UDH     -0.122400
     31 C6'        -4.8380   12.4750   -4.9240 c3        1 UDH      0.145800
     32 N6'        -5.3390   13.7900   -4.6070 n3        1 UDH     -0.906800
     33 HN3         2.0280   -1.5690    0.8850 hn        1 UDH      0.343500
     34 H5         -1.5310   -0.2830    2.8300 ha        1 UDH      0.178000
     35 H6         -2.1440    0.9370    0.6800 h4        1 UDH      0.177000
     36 H1'         0.0560    0.9110   -2.3030 h2        1 UDH      0.130700
     37 H2'        -2.5720   -0.2810   -1.7260 h1        1 UDH      0.083700
     38 HO2'       -2.1270    1.2440   -4.0110 ho        1 UDH      0.430000
     39 H3'        -3.8210    1.5930   -1.0360 h1        1 UDH      0.083700
     40 H4'        -2.0570    3.8140   -2.0850 h1        1 UDH      0.098700
     41 HO3'       -4.5150    2.7830   -2.7220 ho        1 UDH      0.480000
     42 H5'1       -3.1660    2.8510    0.6100 h1        1 UDH      0.026200
     43 H5'2       -1.5830    3.7830    0.6250 h1        1 UDH      0.026200
     44 H1'1       -5.4510    5.6120   -4.3310 h1        1 UDH      0.042700
     45 H1'2       -6.6820    6.7860   -3.6230 h1        1 UDH      0.042700
     46 H2'1       -6.0240    6.9440   -6.1690 hc        1 UDH      0.044200
     47 H2'2       -4.4540    7.6390   -5.5970 hc        1 UDH      0.044200
     48 H3'1       -6.8590    8.9330   -4.3260 hc        1 UDH      0.047700
     49 H3'2       -6.8660    9.0480   -6.1260 hc        1 UDH      0.047700
     50 H4'1       -4.4330    9.7900   -4.3710 hc        1 UDH      0.041700
     51 H4'2       -4.6270   10.0670   -6.1460 hc        1 UDH      0.041700
     52 H5B        -6.3510   11.2910   -3.8840 hc        1 UDH      0.042700
     53 H5D        -6.6600   11.5220   -5.6500 hc        1 UDH      0.042700
     54 H6'1       -4.3860   12.5230   -5.9560 h1        1 UDH      0.049700
     55 H6'2       -4.0070   12.2370   -4.2010 h1        1 UDH      0.049700
     56 HN'1       -6.1110   14.0240   -5.2000 hn        1 UDH      0.339800
     57 HN'2       -3.1720    7.7350   -0.8620 ho        1 UDH      0.481000
     58 H6'3       -5.6530   13.8250   -3.6560 hn        1 UDH      0.339800
@<TRIPOS>BOND
     1    1    2 1   
     2    1    6 1   
     3    1    9 1   
     4    2    3 1   
     5    2    7 2   
     6    3    4 1   
     7    3   33 1   
     8    4    5 1   
     9    4    8 2   
    10    5    6 2   
    11    5   34 1   
    12    6   35 1   
    13    9   10 1   
    14    9   14 1   
    15    9   36 1   
    16   10   11 1   
    17   10   12 1   
    18   10   37 1   
    19   11   38 1   
    20   12   13 1   
    21   12   15 1   
    22   12   39 1   
    23   13   14 1   
    24   13   16 1   
    25   13   40 1   
    26   15   41 1   
    27   16   17 1   
    28   16   42 1   
    29   16   43 1   
    30   17   18 1   
    31   18   19 1   
    32   18   20 1   
    33   18   21 1   
    34   21   22 1   
    35   22   23 1   
    36   22   24 1   
    37   22   25 2   
    38   23   57 1   
    39   24   26 1   
    40   26   27 1   
    41   26   44 1   
    42   26   45 1   
    43   27   28 1   
    44   27   46 1   
    45   27   47 1   
    46   28   29 1   
    47   28   48 1   
    48   28   49 1   
    49   29   30 1   
    50   29   50 1   
    51   29   51 1   
    52   30   31 1   
    53   30   52 1   
    54   30   53 1   
    55   31   32 1   
    56   31   54 1   
    57   31   55 1   
    58   32   56 1   
    59   32   58 1   
@<TRIPOS>SUBSTRUCTURE
     1 UDH         1 TEMP              0 ****  ****    0 ROOT
