@<TRIPOS>MOLECULE
molecule
   58    59     1     0     0
SMALL
bcc


@<TRIPOS>ATOM
      1 N1           0.0000     0.0000     0.0000 n          1 UDH      -0.353000
      2 C2           1.3450     0.0000     0.0000 c          1 UDH       0.815500
      3 N3           2.0370     0.0000     1.1540 ns         1 UDH      -0.566500
      4 C4           1.3870    -0.0000     2.3360 c          1 UDH       0.709700
      5 C5          -0.0280    -0.0010     2.3510 cc         1 UDH      -0.353200
      6 C6          -0.6970    -0.0010     1.1780 cd         1 UDH       0.068600
      7 O2           1.9440     0.0000    -1.0580 o          1 UDH      -0.659500
      8 O4           2.0120    -0.0010     3.3810 o          1 UDH      -0.648500
      9 C1B         -0.7260     0.0050    -1.2730 c3         1 UDH       0.298500
     10 C2B         -1.5280    -1.3090    -1.4490 c3         1 UDH       0.082100
     11 O2'         -0.7140    -2.3290    -2.0320 oh         1 UDH      -0.573800
     12 C3B         -2.6510    -0.8760    -2.4230 c3         1 UDH       0.090100
     13 C4B         -2.7110     0.6560    -2.2720 c3         1 UDH       0.115100
     14 O4'         -1.7480     1.0250    -1.2710 os         1 UDH      -0.383600
     15 O3'         -2.3140    -1.2330    -3.7650 oh         1 UDH      -0.581800
     16 C5B         -4.1120     1.0810    -1.8270 c3         1 UDH       0.234400
     17 O5'         -4.1910     2.5080    -1.8030 os         1 UDH      -0.597200
     18 PA          -5.5250     3.3040    -1.3790 p5         1 UDH       1.428800
     19 O1A         -5.8560     3.0130     0.1680 o          1 UDH      -0.829000
     20 O2A         -6.6570     2.8530    -2.2190 o          1 UDH      -0.829000
     21 O3A         -5.2970     4.8840    -1.5920 os         1 UDH      -0.716800
     22 PB          -6.2800     6.1580    -1.6560 p5         1 UDH       1.425800
     23 O1B         -6.6800     6.6020    -0.1610 o          1 UDH      -0.828000
     24 O2B         -5.5320     7.3760    -2.3960 os         1 UDH      -0.604200
     25 O3B         -7.5040     5.7990    -2.4080 o          1 UDH      -0.828000
     26 C1'         -6.1770     8.6140    -2.7030 c3         1 UDH       0.238400
     27 C2'         -5.1860     9.5460    -3.4030 c3         1 UDH      -0.093400
     28 C3'         -5.8760    10.8720    -3.7300 c3         1 UDH      -0.081400
     29 C4'         -4.8850    11.8030    -4.4300 c3         1 UDH      -0.074400
     30 C5'         -5.5760    13.1290    -4.7580 c3         1 UDH      -0.112400
     31 C6'         -4.5850    14.0610    -5.4570 c3         1 UDH       0.084800
     32 N6'         -5.2480    15.3330    -5.7720 nz         1 UDH      -0.812600
     33 HN3          3.0380     0.0000     1.1350 hn         1 UDH       0.352500
     34 H5          -0.5670    -0.0020     3.2900 ha         1 UDH       0.178000
     35 H6          -1.7810    -0.0010     1.1690 h4         1 UDH       0.191000
     36 H1'         -0.0480     0.1490    -2.1050 h2         1 UDH       0.123700
     37 H2'         -1.9460    -1.6330    -0.5030 h1         1 UDH       0.048700
     38 HO2'        -0.9080    -3.1570    -1.6240 ho         1 UDH       0.394000
     39 H3'         -3.5950    -1.3200    -2.1320 h1         1 UDH       0.054700
     40 H4'         -2.4590     1.1280    -3.2140 h1         1 UDH       0.083700
     41 HO3'        -3.0000    -1.7680    -4.1290 ho         1 UDH       0.399000
     42 H5'1        -4.3100     0.6910    -0.8360 h1         1 UDH       0.034700
     43 H5'2        -4.8450     0.6900    -2.5230 h1         1 UDH       0.034700
     44 H1'1        -6.5230     9.0770    -1.7870 h1         1 UDH       0.025700
     45 H1'2        -7.0220     8.4290    -3.3550 h1         1 UDH       0.025700
     46 H2'1        -4.3410     9.7300    -2.7500 hc         1 UDH       0.046700
     47 H2'2        -4.8410     9.0820    -4.3190 hc         1 UDH       0.046700
     48 H3'1        -6.7210    10.6870    -4.3830 hc         1 UDH       0.046200
     49 H3'2        -6.2220    11.3350    -2.8140 hc         1 UDH       0.046200
     50 H4'1        -4.0400    11.9880    -3.7780 hc         1 UDH       0.054200
     51 H4'2        -4.5400    11.3400    -5.3460 hc         1 UDH       0.054200
     52 H5B         -5.9230    13.5920    -3.8420 hc         1 UDH       0.062700
     53 H5D         -6.4200    12.9440    -5.4110 hc         1 UDH       0.062700
     54 H6'1        -4.2380    13.5980    -6.3730 hx         1 UDH       0.109700
     55 H6'2        -3.7400    14.2460    -4.8040 hx         1 UDH       0.109700
     56 HN'1        -6.0280    15.1630    -6.3760 hn         1 UDH       0.450467
     57 HN'2        -5.5690    15.7610    -4.9260 hn         1 UDH       0.450467
     58 H6'3        -4.5990    15.9440    -6.2290 hn         1 UDH       0.450467
@<TRIPOS>BOND
     1     1     2 1
     2     1     6 1
     3     1     9 1
     4     2     3 1
     5     2     7 2
     6     3     4 1
     7     3    33 1
     8     4     5 1
     9     4     8 2
    10     5     6 2
    11     5    34 1
    12     6    35 1
    13     9    10 1
    14     9    14 1
    15     9    36 1
    16    10    11 1
    17    10    12 1
    18    10    37 1
    19    11    38 1
    20    12    13 1
    21    12    15 1
    22    12    39 1
    23    13    14 1
    24    13    16 1
    25    13    40 1
    26    15    41 1
    27    16    17 1
    28    16    42 1
    29    16    43 1
    30    17    18 1
    31    18    19 1
    32    18    20 1
    33    18    21 1
    34    21    22 1
    35    22    23 1
    36    22    24 1
    37    22    25 1
    38    24    26 1
    39    26    27 1
    40    26    44 1
    41    26    45 1
    42    27    28 1
    43    27    46 1
    44    27    47 1
    45    28    29 1
    46    28    48 1
    47    28    49 1
    48    29    30 1
    49    29    50 1
    50    29    51 1
    51    30    31 1
    52    30    52 1
    53    30    53 1
    54    31    32 1
    55    31    54 1
    56    31    55 1
    57    32    56 1
    58    32    57 1
    59    58    32 1
@<TRIPOS>SUBSTRUCTURE
     1 UDH         1 TEMP              0 ****  ****    0 ROOT
