@<TRIPOS>MOLECULE
UDO
   53    56     1     0     0
SMALL
bcc


@<TRIPOS>ATOM
      1 CAM          0.0000     0.0000     0.0000 ca         1 UDO      -0.157500
      2 CAO          1.3810     0.0000     0.0000 ca         1 UDO      -0.011000
      3 CBB          2.0740     0.0000     1.1970 ca         1 UDO      -0.240300
      4 CBF          3.5800     0.0000     1.1940 c3         1 UDO       0.643200
      5 FAC          4.0470     1.3200     1.1920 f          1 UDO      -0.208967
      6 FAD          4.0490    -0.6580     2.3360 f          1 UDO      -0.208967
      7 FAB          4.0450    -0.6590     0.0510 f          1 UDO      -0.208967
      8 CAP          1.3860     0.0010     2.3970 ca         1 UDO      -0.011000
      9 CAN          0.0050     0.0010     2.4040 ca         1 UDO      -0.157500
     10 CBA         -0.6930     0.0000     1.2030 ca         1 UDO       0.053600
     11 NBE         -2.0900     0.0010     1.2070 nh         1 UDO      -0.356000
     12 CAU         -2.6140     0.0020     2.5790 c3         1 UDO       0.117800
     13 CAS         -4.1340     0.1850     2.5430 c3         1 UDO       0.038500
     14 CAT         -2.6190    -1.1330     0.4360 c3         1 UDO       0.117800
     15 CAR         -4.1390    -0.9960     0.3110 c3         1 UDO       0.038500
     16 NBD         -4.7070    -0.8430     1.6580 n          1 UDO      -0.154800
     17 CAW         -5.7240    -1.6230     2.0740 c          1 UDO       0.591100
     18 OAA         -6.1800    -1.4830     3.1890 o          1 UDO      -0.633100
     19 CBC         -6.2960    -2.6690     1.1520 c3         1 UDO       0.002900
     20 CAY         -7.4150    -3.3980     1.8520 ca         1 UDO      -0.078300
     21 CAK         -7.3800    -4.7750     1.9600 ca         1 UDO      -0.071000
     22 CAI         -8.4050    -5.4450     2.6020 ca         1 UDO      -0.098000
     23 CAX         -9.4660    -4.7350     3.1360 ca         1 UDO      -0.027600
     24 ClA        -10.7540    -5.5750     3.9430 cl         1 UDO      -0.030400
     25 CAJ         -9.5000    -3.3560     3.0280 ca         1 UDO      -0.098000
     26 CAL         -8.4720    -2.6880     2.3900 ca         1 UDO      -0.071000
     27 CAZ         -6.8310    -2.0050    -0.0910 ca         1 UDO      -0.215600
     28 CAH         -6.4810    -2.4810    -1.3450 ca         1 UDO      -0.071000
     29 CAF         -6.9960    -1.8390    -2.4620 ca         1 UDO      -0.216300
     30 CAG         -7.8340    -0.7550    -2.2870 ca         1 UDO       0.407200
     31 NAV         -8.1450    -0.3290    -1.0790 nb         1 UDO      -0.571000
     32 CAQ         -7.6790    -0.9190     0.0050 ca         1 UDO       0.404200
     33 HAM         -0.5420    -0.0000    -0.9380 ha         1 UDO       0.125500
     34 HAO          1.9230    -0.0000    -0.9380 ha         1 UDO       0.117000
     35 HAP          1.9320     0.0020     3.3330 ha         1 UDO       0.117000
     36 HAN         -0.5320     0.0020     3.3440 ha         1 UDO       0.125500
     37 HAU1        -2.1660     0.8170     3.1340 h1         1 UDO       0.028700
     38 HAU2        -2.3760    -0.9420     3.0560 h1         1 UDO       0.028700
     39 HAT1        -2.3810    -2.0580     0.9460 h1         1 UDO       0.028700
     40 HAT2        -2.1750    -1.1340    -0.5530 h1         1 UDO       0.028700
     41 HAS1        -4.5380     0.0700     3.5410 h1         1 UDO       0.042700
     42 HAS2        -4.3730     1.1690     2.1580 h1         1 UDO       0.042700
     43 HAR1        -4.3780    -0.1240    -0.2850 h1         1 UDO       0.042700
     44 HAR2        -4.5470    -1.8850    -0.1550 h1         1 UDO       0.042700
     45 HBC         -5.5200    -3.3740     0.8800 hc         1 UDO       0.046700
     46 HAK         -6.5500    -5.3310     1.5410 ha         1 UDO       0.112500
     47 HAL         -8.4980    -1.6080     2.3050 ha         1 UDO       0.112500
     48 HAI         -8.3780    -6.5240     2.6860 ha         1 UDO       0.115000
     49 HAJ        -10.3290    -2.8000     3.4480 ha         1 UDO       0.115000
     50 HAH         -5.8210    -3.3340    -1.4510 ha         1 UDO       0.112000
     51 HAQ         -7.9560    -0.5410     0.9810 h4         1 UDO      -0.000900
     52 HAF         -6.7440    -2.1840    -3.4570 ha         1 UDO       0.116000
     53 HAG         -8.2380    -0.2460    -3.1540 h4         1 UDO      -0.017900
@<TRIPOS>BOND
     1     1     2 ar  
     2     1    10 ar  
     3     1    33 1   
     4     2     3 ar  
     5     2    34 1   
     6     3     4 1   
     7     3     8 ar  
     8     4     5 1   
     9     4     6 1   
    10     4     7 1   
    11     8     9 ar  
    12     8    35 1   
    13     9    10 ar  
    14     9    36 1   
    15    10    11 1   
    16    11    12 1   
    17    11    14 1   
    18    12    13 1   
    19    12    37 1   
    20    12    38 1   
    21    13    16 1   
    22    13    41 1   
    23    13    42 1   
    24    14    15 1   
    25    14    39 1   
    26    14    40 1   
    27    15    16 1   
    28    15    43 1   
    29    15    44 1   
    30    16    17 1   
    31    17    18 2   
    32    17    19 1   
    33    19    20 1   
    34    19    27 1   
    35    19    45 1   
    36    20    21 ar  
    37    20    26 ar  
    38    21    22 ar  
    39    21    46 1   
    40    22    23 ar  
    41    22    48 1   
    42    23    24 1   
    43    23    25 ar  
    44    25    26 ar  
    45    25    49 1   
    46    26    47 1   
    47    27    28 ar  
    48    27    32 ar  
    49    28    29 ar  
    50    28    50 1   
    51    29    30 ar  
    52    29    52 1   
    53    30    31 ar  
    54    30    53 1   
    55    31    32 ar  
    56    32    51 1   
@<TRIPOS>SUBSTRUCTURE
     1 UDO         1 TEMP              0 ****  ****    0 ROOT
