@<TRIPOS>MOLECULE
UDR
   65    67     1     0     0
SMALL
bcc


@<TRIPOS>ATOM
      1 CAA        -0.4370   -0.4760   -0.4210 c3        1 UDR     -0.076000
      2 CAB         0.7680    4.8280   -2.2400 c3        1 UDR     -0.366000
      3 CAE         2.0770    7.3370    3.7630 c3        1 UDR     -0.154000
      4 CAF         4.4110    3.9860   10.0090 c1        1 UDR     -0.031000
      5 OAG        -0.5290    2.6410   -0.6940 o         1 UDR     -0.296000
      6 OAH         3.1420    7.4820    8.9210 o         1 UDR     -0.296000
      7 CAI         4.4810    2.4380    4.2620 c2        1 UDR     -0.155000
      8 CAJ         2.6270    0.5360    2.6570 ca        1 UDR     -0.098000
      9 CAK         2.1840    4.8430    3.8820 c1        1 UDR     -0.083000
     10 CAL         1.9340    2.6740    1.7560 ca        1 UDR     -0.065000
     11 CAM         2.6530    3.6440    6.0820 c2        1 UDR     -0.149000
     12 CAN         5.4400    1.5230    3.6020 c3        1 UDR     -0.133000
     13 CAO         6.8580    2.0550    3.6930 c3        1 UDR     -0.155000
     14 CAP         7.8160    1.1280    2.9700 c3        1 UDR     -0.086000
     15 NAQ        11.1860    2.2090    3.8110 n2        1 UDR     -0.089000
     16 NAR         9.9600    1.9080    4.2090 n2        1 UDR     -0.091000
     17 OAS         0.9110   -0.0160   -0.5510 os        1 UDR     -0.231000
     18 OAT        10.0160    1.6480    1.9850 os        1 UDR     -0.137000
     19 OAU         2.6670    7.1800    6.7350 os        1 UDR     -0.175000
     20 SAV         1.7260    3.9830   -1.0360 ss        1 UDR      0.161000
     21 CAY         2.0330   -0.1340    1.5850 ca        1 UDR     -0.098000
     22 CAZ        11.2660    2.0650    2.4730 c2        1 UDR     -0.030000
     23 CBA         2.2650    6.0950    4.5430 c2        1 UDR     -0.165000
     24 CBB         2.5820    1.9310    2.7520 ca        1 UDR     -0.064000
     25 CBC         2.3090    3.5800    4.6290 c3        1 UDR     -0.094000
     26 CBD         9.2180    1.5640    3.1380 c2        1 UDR     -0.032000
     27 CBE         1.3370    2.0250    0.6720 ca        1 UDR     -0.155000
     28 CBF         1.3910    0.6210    0.5860 ca        1 UDR      0.099000
     29 CBG         2.9690    6.6540    8.0340 c2        1 UDR      0.370000
     30 CBH         2.7310    4.8560    6.6710 c2        1 UDR     -0.043000
     31 CBI         2.5280    6.0960    5.8850 c2        1 UDR      0.132000
     32 NBJ         2.9500    5.2530    8.0090 n         1 UDR     -0.335000
     33 HAA        -0.6400   -0.9690   -1.4040 h1        1 UDR      0.086667
     34 HAAA       -1.1250    0.3910   -0.2590 h1        1 UDR      0.086667
     35 HAAB       -0.5140   -1.2100    0.4170 h1        1 UDR      0.086667
     36 HAB         1.2540    4.7150   -3.2360 h1        1 UDR      0.117333
     37 HABA        0.7240    5.9090   -1.9790 h1        1 UDR      0.117333
     38 HABB       -0.2700    4.4240   -2.2950 h1        1 UDR      0.117333
     39 HAC         1.9940   -1.9570    0.4490 hc        1 UDR      0.088333
     40 HACA        1.2300   -2.0510    2.0920 hc        1 UDR      0.088333
     41 HACB        3.0360   -2.0020    1.9370 hc        1 UDR      0.088333
     42 HAD        11.9950    2.0030    0.4720 hc        1 UDR      0.113000
     43 HADA       12.6940    3.3210    1.5220 hc        1 UDR      0.113000
     44 HADB       13.2150    1.5940    1.7650 hc        1 UDR      0.113000
     45 HAE         1.0220    7.4000    3.3950 hc        1 UDR      0.089333
     46 HAEA        2.2960    8.2400    4.3840 hc        1 UDR      0.089333
     47 HAEB        2.7540    7.3340    2.8720 hc        1 UDR      0.089333
     48 HAF         3.9750    3.3060   10.7510 ha        1 UDR      0.055000
     49 HAFA        3.4790    4.6910    8.7030 hn        1 UDR      0.322000
     50 HAFB        5.4460    4.2780   10.2280 ha        1 UDR      0.055000
     51 HAI         4.8880    2.9990    5.1220 ha        1 UDR      0.127000
     52 HAJ         3.1390   -0.0470    3.4400 ha        1 UDR      0.134000
     53 HAK         1.2420    3.1670    4.5790 hc        1 UDR      0.174000
     54 HAL         1.8970    3.7790    1.8480 ha        1 UDR      0.201000
     55 HAM         2.8060    2.7000    6.6190 ha        1 UDR      0.146000
     56 HAN         5.3880    0.5170    4.1050 hc        1 UDR      0.094000
     57 HANA        5.1590    1.3670    2.5250 hc        1 UDR      0.094000
     58 HAO         6.9070    3.0790    3.2370 hc        1 UDR      0.099500
     59 HAOA        7.1590    2.1510    4.7690 hc        1 UDR      0.099500
     60 HAP         7.5720    1.0950    1.8740 hc        1 UDR      0.114500
     61 HAPA        7.7220    0.0840    3.3770 hc        1 UDR      0.114500
     62 CAC         2.0800   -1.6130    1.5100 c3        1 UDR     -0.178000
     63 CAW         0.6510    2.8160   -0.3690 c2        1 UDR      0.155000
     64 CAX         3.2030    2.6180    3.8880 c2        1 UDR     -0.023000
     65 CAD        12.3520    2.2550    1.5010 c3        1 UDR     -0.148000
@<TRIPOS>BOND
     1    1   17 1
     2    1   33 1
     3    1   34 1
     4    1   35 1
     5    2   20 1
     6    2   36 1
     7    2   37 1
     8    2   38 1
     9    3   23 1
    10    3   45 1
    11    3   46 1
    12    3   47 1
    13    4   48 1
    14    4   50 1
    15    5   63 1
    16    6   29 1
    17    7   12 1
    18    7   51 1
    19    7   64 1
    20    8   21 1
    21    8   24 1
    22    8   52 1
    23    9   23 1
    24    9   25 1
    25   10   24 1
    26   10   27 1
    27   10   54 1
    28   11   25 1
    29   11   30 1
    30   11   55 1
    31   12   13 1
    32   12   56 1
    33   12   57 1
    34   13   14 1
    35   13   58 1
    36   13   59 1
    37   14   26 1
    38   14   60 1
    39   14   61 1
    40   15   16 1
    41   15   22 1
    42   16   26 1
    43   17   28 1
    44   18   22 1
    45   18   26 1
    46   19   29 1
    47   19   31 1
    48   20   63 1
    49   21   28 1
    50   21   62 1
    51   22   65 1
    52   23   31 1
    53   24   64 1
    54   25   53 1
    55   25   64 1
    56   27   28 1
    57   27   63 1
    58   29   32 1
    59   30   31 1
    60   30   32 1
    61   32   49 1
    62   39   62 1
    63   40   62 1
    64   41   62 1
    65   42   65 1
    66   43   65 1
    67   44   65 1
@<TRIPOS>SUBSTRUCTURE
     1 UDR         1 TEMP              0 ****  ****    0 ROOT
