@<TRIPOS>MOLECULE
molecule
   36    35     1     0     0
SMALL
bcc


@<TRIPOS>ATOM
      1 C11          0.0000     0.0000     0.0000 c3         1 UDT      -0.092100
      2 C10          1.5300     0.0000     0.0000 c3         1 UDT      -0.084400
      3 C9           2.0400     0.0000     1.4430 c3         1 UDT      -0.081400
      4 C8           3.5700    -0.0000     1.4430 c3         1 UDT      -0.082400
      5 C7           4.0790     0.0000     2.8860 c3         1 UDT      -0.081400
      6 C6           5.6090    -0.0000     2.8860 c3         1 UDT      -0.082400
      7 C5           6.1200    -0.0000     4.3280 c3         1 UDT      -0.079400
      8 C4           7.6500    -0.0000     4.3280 c3         1 UDT      -0.080400
      9 C3           8.1590    -0.0010     5.7710 c3         1 UDT      -0.084400
     10 C2           9.6890     0.0000     5.7710 c3         1 UDT       0.139400
     11 O2          10.1740    -0.0000     7.1400 os         1 UDT      -0.405900
     12 C1          11.5090    -0.0000     7.3170 c          1 UDT       0.677700
     13 O1          12.2490    -0.0000     6.3520 o          1 UDT      -0.507000
     14 S1          12.1830    -0.0000     8.9450 sh         1 UDT      -0.302400
     15 H111        -0.3610     0.0000    -1.0210 hc         1 UDT       0.032700
     16 H112        -0.3610     0.8840     0.5110 hc         1 UDT       0.032700
     17 H113        -0.3610    -0.8850     0.5110 hc         1 UDT       0.032700
     18 H101         1.8910     0.8850    -0.5110 hc         1 UDT       0.039700
     19 H102         1.8910    -0.8850    -0.5110 hc         1 UDT       0.039700
     20 H91          1.6790     0.8850     1.9540 hc         1 UDT       0.041200
     21 H92          1.6790    -0.8850     1.9540 hc         1 UDT       0.041200
     22 H81          3.9310     0.8850     0.9330 hc         1 UDT       0.041700
     23 H82          3.9310    -0.8850     0.9330 hc         1 UDT       0.041700
     24 H71          3.7180     0.8850     3.3960 hc         1 UDT       0.041700
     25 H72          3.7180    -0.8850     3.3960 hc         1 UDT       0.041700
     26 H61          5.9700    -0.8840     2.3750 hc         1 UDT       0.042200
     27 H62          5.9700     0.8840     2.3750 hc         1 UDT       0.042200
     28 H51          5.7590    -0.8840     4.8390 hc         1 UDT       0.043700
     29 H52          5.7590     0.8840     4.8390 hc         1 UDT       0.043700
     30 H41          8.0110     0.8850     3.8180 hc         1 UDT       0.044700
     31 H42          8.0110    -0.8840     3.8170 hc         1 UDT       0.044700
     32 H31          7.7980     0.8830     6.2820 hc         1 UDT       0.055700
     33 H32          7.7990    -0.8860     6.2810 hc         1 UDT       0.055700
     34 H21         10.0500     0.8850     5.2600 h1         1 UDT       0.051700
     35 H22         10.0510    -0.8840     5.2600 h1         1 UDT       0.051700
     36 HS1         12.7380    -1.1800     9.1940 hs         1 UDT       0.240800
@<TRIPOS>BOND
     1     1     2 1
     2     1    15 1
     3     1    16 1
     4     1    17 1
     5     2     3 1
     6     2    18 1
     7     2    19 1
     8     3     4 1
     9     3    20 1
    10     3    21 1
    11     4     5 1
    12     4    22 1
    13     4    23 1
    14     5     6 1
    15     5    24 1
    16     5    25 1
    17     6     7 1
    18     6    26 1
    19     6    27 1
    20     7     8 1
    21     7    28 1
    22     7    29 1
    23     8     9 1
    24     8    30 1
    25     8    31 1
    26     9    10 1
    27     9    32 1
    28     9    33 1
    29    10    11 1
    30    10    34 1
    31    10    35 1
    32    11    12 1
    33    12    14 1
    34    12    13 2
    35    14    36 1
@<TRIPOS>SUBSTRUCTURE
     1 UDT         1 TEMP              0 ****  ****    0 ROOT
