@<TRIPOS>MOLECULE
UDT
   36    35     1     0     0
SMALL
bcc


@<TRIPOS>ATOM
      1 C11         0.0080    0.0600    0.0130 c3        1 UDT     -0.092100
      2 C10         1.5150    0.0480    0.0330 c3        1 UDT     -0.080400
      3 C9          2.0510    0.0250    1.4490 c3        1 UDT     -0.079400
      4 C8          3.5650    0.0130    1.4640 c3        1 UDT     -0.079400
      5 C7          4.1000   -0.0090    2.8800 c3        1 UDT     -0.079400
      6 C6          5.6140   -0.0210    2.8940 c3        1 UDT     -0.079400
      7 C5          6.1480   -0.0440    4.3100 c3        1 UDT     -0.078400
      8 C4          7.6620   -0.0570    4.3230 c3        1 UDT     -0.078400
      9 C3          8.1910   -0.0790    5.7410 c3        1 UDT     -0.085400
     10 C2          9.7080   -0.0920    5.7300 c3        1 UDT      0.136400
     11 O2         10.1090   -0.1140    7.1140 os        1 UDT     -0.416900
     12 C1         11.4510   -0.1280    7.3570 c         1 UDT      0.637700
     13 O1         12.2300   -0.1230    6.3990 o         1 UDT     -0.540000
     14 S1         11.7740   -0.1530    9.0470 sh        1 UDT     -0.196400
     15 H111       -0.4010   -0.8490    0.5190 hc        1 UDT      0.032700
     16 H112       -0.3660    0.0760   -1.0390 hc        1 UDT      0.032700
     17 H113       -0.3860    0.9610    0.5420 hc        1 UDT      0.032700
     18 H101        1.8920   -0.8510   -0.5230 hc        1 UDT      0.038700
     19 H102        1.9060    0.9540   -0.5000 hc        1 UDT      0.038700
     20 H91         1.6620   -0.8810    1.9840 hc        1 UDT      0.039700
     21 H92         1.6770    0.9240    2.0060 hc        1 UDT      0.039700
     22 H81         3.9540    0.9200    0.9290 hc        1 UDT      0.039700
     23 H82         3.9390   -0.8850    0.9060 hc        1 UDT      0.039700
     24 H71         3.7110   -0.9150    3.4140 hc        1 UDT      0.039700
     25 H72         3.7260    0.8890    3.4380 hc        1 UDT      0.039700
     26 H61         5.9880   -0.9200    2.3360 hc        1 UDT      0.040700
     27 H62         6.0020    0.8850    2.3600 hc        1 UDT      0.040700
     28 H51         5.7750    0.8550    4.8680 hc        1 UDT      0.041700
     29 H52         5.7600   -0.9500    4.8450 hc        1 UDT      0.041700
     30 H41         8.0360   -0.9560    3.7660 hc        1 UDT      0.042700
     31 H42         8.0510    0.8500    3.7890 hc        1 UDT      0.042700
     32 H31         7.8130   -0.9850    6.2820 hc        1 UDT      0.056700
     33 H32         7.8290    0.8200    6.3050 hc        1 UDT      0.056700
     34 H21        10.1170   -1.0040    5.2220 h1        1 UDT      0.054700
     35 H22        10.1330    0.8240    5.2450 h1        1 UDT      0.054700
     36 HS1        13.1010   -0.1630    8.9590 hs        1 UDT      0.220800
@<TRIPOS>BOND
     1    1    2 1   
     2    1   15 1   
     3    1   16 1   
     4    1   17 1   
     5    2    3 1   
     6    2   18 1   
     7    2   19 1   
     8    3    4 1   
     9    3   20 1   
    10    3   21 1   
    11    4    5 1   
    12    4   22 1   
    13    4   23 1   
    14    5    6 1   
    15    5   24 1   
    16    5   25 1   
    17    6    7 1   
    18    6   26 1   
    19    6   27 1   
    20    7    8 1   
    21    7   28 1   
    22    7   29 1   
    23    8    9 1   
    24    8   30 1   
    25    8   31 1   
    26    9   10 1   
    27    9   32 1   
    28    9   33 1   
    29   10   11 1   
    30   10   34 1   
    31   10   35 1   
    32   11   12 1   
    33   12   13 2   
    34   12   14 1   
    35   14   36 1   
@<TRIPOS>SUBSTRUCTURE
     1 UDT         1 TEMP              0 ****  ****    0 ROOT
