@<TRIPOS>MOLECULE
molecule
   31    34     1     0     0
SMALL
bcc


@<TRIPOS>ATOM
      1 C10          0.0000     0.0000     0.0000 cc         1 UDY       0.710300
      2 N12         -0.8010     0.0010    -1.1330 nu         1 UDY      -0.766900
      3 C13         -0.2230     0.0010    -2.3880 cc         1 UDY       0.641100
      4 C15         -0.1660     0.0030    -4.6470 ca         1 UDY       0.146400
      5 C17          0.2400     0.0020    -7.0280 ca         1 UDY      -0.155000
      6 C20          1.2150     0.0040    -4.4320 ca         1 UDY      -0.043100
      7 C01         -1.5320     0.0100     5.3480 ca         1 UDY      -0.098000
      8 C02         -0.4980     0.0050     6.2750 ca         1 UDY      -0.250300
      9 C03          0.8110     0.0010     5.8310 ca         1 UDY       0.421200
     10 N04          1.0870     0.0010     4.5420 nb         1 UDY      -0.692000
     11 C05          0.1290     0.0050     3.6240 ca         1 UDY       0.394300
     12 C06         -1.2140     0.0100     4.0030 ca         1 UDY      -0.213300
     13 C07          0.4870     0.0040     2.1870 cc         1 UDY       0.345300
     14 C08          1.7640     0.0000     1.7620 cd         1 UDY      -0.144400
     15 S09          1.7610     0.0000     0.0000 ss         1 UDY      -0.238300
     16 N11         -0.4320     0.0050     1.2230 nc         1 UDY      -0.731000
     17 N14         -0.8750     0.0020    -3.4990 nd         1 UDY      -0.639100
     18 C16         -0.6400     0.0030    -5.9760 ca         1 UDY      -0.061000
     19 C18          1.6110     0.0050    -6.8030 ca         1 UDY       0.132900
     20 C19          2.0950     0.0050    -5.5110 ca         1 UDY      -0.122000
     21 S21          1.5090     0.0080    -2.6950 ss         1 UDY      -0.117100
     22 F22          2.4680     0.0040    -7.8470 f          1 UDY      -0.134900
     23 H1          -1.7980     0.0020    -1.0410 hn         1 UDY       0.490800
     24 H2          -0.1380     0.0020    -8.0440 ha         1 UDY       0.152000
     25 H4          -0.7140     0.0050     7.3370 ha         1 UDY       0.139000
     26 H5           1.6200    -0.0030     6.5510 h4         1 UDY       0.025100
     27 H6          -1.9960     0.0130     3.2530 ha         1 UDY       0.159000
     28 H7           2.6430    -0.0000     2.3950 h4         1 UDY       0.205000
     29 H8          -1.7060     0.0010    -6.1660 ha         1 UDY       0.154000
     30 H9           3.1640     0.0070    -5.3360 ha         1 UDY       0.152000
     31 H3          -2.5660     0.0140     5.6720 ha         1 UDY       0.140000
@<TRIPOS>BOND
     1     9     8 ar
     2     9    10 ar
     3     8     7 ar
     4    10    11 ar
     5     7    12 ar
     6    11    12 ar
     7    11    13 1
     8    16    13 1
     9    16     1 2
    10    21     6 1
    11    21     3 1
    12    13    14 2
    13    20     6 ar
    14    20    19 ar
    15     1     2 1
    16     1    15 1
    17     2     3 1
    18     6     4 ar
    19    14    15 1
    20     3    17 2
    21    22    19 1
    22    19     5 ar
    23     4    17 1
    24     4    18 ar
    25     5    18 ar
    26     2    23 1
    27     5    24 1
    28     7    31 1
    29     8    25 1
    30     9    26 1
    31    12    27 1
    32    14    28 1
    33    18    29 1
    34    20    30 1
@<TRIPOS>SUBSTRUCTURE
     1 UDY         1 TEMP              0 ****  ****    0 ROOT
