@<TRIPOS>MOLECULE
molecule
   23    23     1     0     0
SMALL
bcc


@<TRIPOS>ATOM
      1 OP4          0.0000     0.0000     0.0000 oh         1 UEG      -0.612800
      2 C5A          1.4290     0.0000     0.0000 c3         1 UEG       0.189700
      3 C5           1.9320     0.0000     1.4200 ca         1 UEG      -0.187600
      4 C6           1.0400     0.0000     2.4770 ca         1 UEG       0.439200
      5 N1           1.4700     0.0000     3.7240 nb         1 UEG      -0.678000
      6 C2           2.7550     0.0010     4.0160 ca         1 UEG       0.404600
      7 C3           3.7100     0.0000     3.0100 ca         1 UEG      -0.002200
      8 C4           3.2920    -0.0050     1.6820 ca         1 UEG      -0.073300
      9 C4A          4.2950    -0.0120     0.5570 c3         1 UEG       0.191700
     10 O4A          4.6170     1.3340     0.2000 oh         1 UEG      -0.594800
     11 O3           5.0340     0.0010     3.3160 oh         1 UEG      -0.508100
     12 C2A          3.1920     0.0010     5.4580 c3         1 UEG      -0.138400
     13 HP4         -0.3140     0.0160    -0.8890 ho         1 UEG       0.409000
     14 H5A          1.7890    -0.8840    -0.5110 h1         1 UEG       0.037200
     15 H5B          1.7890     0.8840    -0.5110 h1         1 UEG       0.037200
     16 H6          -0.0250     0.0000     2.2790 h4         1 UEG       0.049100
     17 H2A          3.7070    -0.9260     5.6790 hc         1 UEG       0.054367
     18 H2B          2.3230     0.0930     6.0980 hc         1 UEG       0.054367
     19 H2C          3.8600     0.8360     5.6330 hc         1 UEG       0.054367
     20 H3           5.3270    -0.8860     3.4440 ho         1 UEG       0.415000
     21 H4A          5.1930    -0.5260     0.8770 h1         1 UEG       0.028200
     22 H4B          3.8720    -0.5220    -0.3010 h1         1 UEG       0.028200
     23 H5           5.3600     1.3350    -0.3810 ho         1 UEG       0.404000
@<TRIPOS>BOND
     1     1     2 1
     2     2     3 1
     3     3     4 ar
     4     3     8 ar
     5     4     5 ar
     6     5     6 ar
     7     6     7 ar
     8     6    12 1
     9     7     8 ar
    10     7    11 1
    11     8     9 1
    12     9    10 1
    13     9    21 1
    14     9    22 1
    15     1    13 1
    16     2    14 1
    17     2    15 1
    18     4    16 1
    19    12    17 1
    20    12    18 1
    21    12    19 1
    22    11    20 1
    23    10    23 1
@<TRIPOS>SUBSTRUCTURE
     1 UEG         1 TEMP              0 ****  ****    0 ROOT
