@<TRIPOS>MOLECULE
UEG
   23    23     1     0     0
SMALL
bcc


@<TRIPOS>ATOM
      1 OP4         0.0240    0.3040   -0.0080 oh        1 UEG     -0.602800
      2 C5A         1.4220    0.0500   -0.0350 c3        1 UEG      0.170700
      3 C5          1.9410   -0.0000    1.3620 ca        1 UEG     -0.151600
      4 C6          1.0710    0.0250    2.4730 ca        1 UEG      0.389200
      5 N1          1.4830   -0.0270    3.7480 nb        1 UEG     -0.633000
      6 C2          2.8120   -0.1050    3.9930 ca        1 UEG      0.336600
      7 C3          3.7580   -0.1320    2.9320 ca        1 UEG      0.013800
      8 C4          3.3210   -0.0820    1.5930 ca        1 UEG     -0.126300
      9 C4A         4.3020   -0.1360    0.4650 c3        1 UEG      0.174700
     10 O4A         4.3170    1.0570   -0.3000 oh        1 UEG     -0.599800
     11 O3          5.1170   -0.1930    3.1350 oh        1 UEG     -0.499100
     12 C2A         3.2920   -0.1640    5.4060 c3        1 UEG     -0.154400
     13 HP4        -0.2320    0.4880   -0.9190 ho        1 UEG      0.408000
     14 H5A         1.6100   -0.9390   -0.5400 h1        1 UEG      0.049700
     15 H5B         1.9580    0.8580   -0.6070 h1        1 UEG      0.049700
     16 H6         -0.0230    0.0940    2.3180 h4        1 UEG      0.049100
     17 H2A         3.8460   -1.1210    5.5770 hc        1 UEG      0.054367
     18 H2B         2.4470   -0.1160    6.1360 hc        1 UEG      0.054367
     19 H2C         3.9780    0.6960    5.6070 hc        1 UEG      0.054367
     20 H3          5.2800   -0.3000    4.0840 ho        1 UEG      0.427000
     21 H4A         5.3350   -0.3560    0.8500 h1        1 UEG      0.063700
     22 H4B         4.0010   -0.9330   -0.2710 h1        1 UEG      0.063700
     23 H5          4.5830    1.7720    0.2900 ho        1 UEG      0.407000
@<TRIPOS>BOND
     1    1    2 1   
     2    1   13 1   
     3    2    3 1   
     4    2   14 1   
     5    2   15 1   
     6    3    4 ar  
     7    3    8 ar  
     8    4    5 ar  
     9    4   16 1   
    10    5    6 ar  
    11    6    7 ar  
    12    6   12 1   
    13    7    8 ar  
    14    7   11 1   
    15    8    9 1   
    16    9   10 1   
    17    9   21 1   
    18    9   22 1   
    19   10   23 1   
    20   11   20 1   
    21   12   17 1   
    22   12   18 1   
    23   12   19 1   
@<TRIPOS>SUBSTRUCTURE
     1 UEG         1 TEMP              0 ****  ****    0 ROOT
