@<TRIPOS>MOLECULE
UEK
   69    72     1     0     0
SMALL
bcc


@<TRIPOS>ATOM
      1 Cl1          0.0000     0.0000     0.0000 cl         1 UEK       0.038600
      2 C26          1.7360     0.0000     0.0000 ca         1 UEK      -0.026600
      3 C25          2.4280     0.0000     1.1980 ca         1 UEK      -0.075500
      4 C24          3.8100     0.0010     1.1960 ca         1 UEK      -0.091000
      5 C27          2.4280    -0.0060    -1.1990 ca         1 UEK      -0.075500
      6 C28          3.8110    -0.0050    -1.1980 ca         1 UEK      -0.091000
      7 C23          4.5010     0.0010    -0.0000 ca         1 UEK      -0.175300
      8 C22          6.0080     0.0020    -0.0000 c3         1 UEK       0.030900
      9 C            6.5190    -1.4400    -0.0010 c3         1 UEK      -0.047500
     10 N            6.1300    -2.0970    -1.2560 nz         1 UEK       0.044400
     11 C1           8.0440    -1.4420     0.1250 c3         1 UEK      -0.117400
     12 C2           8.5360    -2.8610     0.2480 c          1 UEK       0.575100
     13 O            7.7450    -3.7810     0.2370 o          1 UEK      -0.699100
     14 N1           9.8560    -3.1080     0.3710 n          1 UEK      -0.099800
     15 C7          10.4700    -4.4370     0.4990 c3         1 UEK       0.044000
     16 C6          11.9930    -4.2260     0.6390 c3         1 UEK       0.010600
     17 C4          12.0960    -2.7650     1.1500 c3         1 UEK      -0.062700
     18 C5          13.4330    -2.1380     0.7510 c3         1 UEK       0.232400
     19 O1          13.5440    -0.8380     1.3340 oh         1 UEK      -0.601800
     20 C3          10.9220    -2.0900     0.3920 c3         1 UEK       0.029000
     21 C8          12.5740    -5.1860     1.6460 ca         1 UEK      -0.082300
     22 C21         13.5690    -6.0640     1.2670 ca         1 UEK      -0.106000
     23 C12         14.1040    -6.9480     2.1950 ca         1 UEK      -0.064400
     24 C11         13.6360    -6.9440     3.5030 ca         1 UEK      -0.074600
     25 Cl          14.3010    -8.0460     4.6680 cl         1 UEK      -0.002400
     26 C10         12.6390    -6.0620     3.8760 ca         1 UEK      -0.064000
     27 C9          12.1130    -5.1800     2.9500 ca         1 UEK      -0.116000
     28 N2          15.1130    -7.8400     1.8130 ns         1 UEK      -0.035100
     29 C13         15.9090    -7.5490     0.7650 c          1 UEK       0.566100
     30 O2          15.8180    -6.4730     0.2140 o          1 UEK      -0.628100
     31 C14         16.9110    -8.5630     0.2770 c3         1 UEK      -0.035100
     32 C15         17.6680    -7.9960    -0.8970 ca         1 UEK      -0.092300
     33 C20         18.8350    -7.2850    -0.6870 ca         1 UEK      -0.059000
     34 C19         19.5290    -6.7640    -1.7620 ca         1 UEK      -0.128500
     35 C18         19.0560    -6.9540    -3.0490 ca         1 UEK       0.110900
     36 F           19.7350    -6.4460    -4.1020 f          1 UEK      -0.126900
     37 C17         17.8870    -7.6670    -3.2580 ca         1 UEK      -0.128500
     38 C16         17.1980    -8.1920    -2.1830 ca         1 UEK      -0.059000
     39 H25          1.8870    -0.0000     2.1370 ha         1 UEK       0.130500
     40 H27          1.8870    -0.0100    -2.1370 ha         1 UEK       0.130500
     41 H24          4.3520     0.0030     2.1340 ha         1 UEK       0.105500
     42 H28          4.3530    -0.0070    -2.1360 ha         1 UEK       0.105500
     43 H221         6.3690     0.5130    -0.8850 hc         1 UEK       0.050200
     44 H222         6.3690     0.5120     0.8840 hc         1 UEK       0.050200
     45 H            6.0870    -1.9770     0.8350 hx         1 UEK       0.110700
     46 HN1          5.1980    -2.4530    -1.1720 hn         1 UEK       0.234467
     47 HN2          6.7590    -2.8520    -1.4460 hn         1 UEK       0.234467
     48 H11C         8.3340    -0.8810     1.0050 hc         1 UEK       0.063200
     49 H12C         8.4790    -0.9840    -0.7550 hc         1 UEK       0.063200
     50 H71C        10.2600    -5.0260    -0.3850 h1         1 UEK       0.040200
     51 H72C        10.0850    -4.9360     1.3810 h1         1 UEK       0.040200
     52 H31C        10.5890    -1.2080     0.9260 h1         1 UEK       0.030700
     53 H32C        11.2220    -1.8380    -0.6180 h1         1 UEK       0.030700
     54 H6          12.4800    -4.3290    -0.3230 hc         1 UEK       0.051700
     55 H4          11.9410    -2.7190     2.2210 hc         1 UEK       0.064700
     56 H51C        13.4860    -2.0550    -0.3280 h1         1 UEK       0.002700
     57 H52C        14.2450    -2.7630     1.1050 h1         1 UEK       0.002700
     58 H1          14.4050    -0.4920     1.1700 ho         1 UEK       0.406000
     59 H21         13.9320    -6.0650     0.2460 ha         1 UEK       0.162000
     60 H9          11.3320    -4.4890     3.2440 ha         1 UEK       0.108000
     61 H2          15.2440    -8.6940     2.3180 hn         1 UEK       0.181500
     62 H10         12.2750    -6.0570     4.8960 ha         1 UEK       0.120000
     63 H141        16.3930    -9.4650    -0.0290 hc         1 UEK       0.037700
     64 H142        17.6050    -8.7990     1.0750 hc         1 UEK       0.037700
     65 H20         19.2050    -7.1360     0.3200 ha         1 UEK       0.106000
     66 H16         16.2840    -8.7500    -2.3460 ha         1 UEK       0.106000
     67 H19         20.4440    -6.2060    -1.5980 ha         1 UEK       0.120500
     68 H17         17.5180    -7.8190    -4.2650 ha         1 UEK       0.120500
     69 HN3          6.1650    -1.4340    -2.0050 hn         1 UEK       0.234467
@<TRIPOS>BOND
     1     1     2 1   
     2     2     3 ar  
     3     2     5 ar  
     4     3     4 ar  
     5     3    39 1   
     6     4     7 ar  
     7     4    41 1   
     8     5     6 ar  
     9     5    40 1   
    10     6     7 ar  
    11     6    42 1   
    12     7     8 1   
    13     8     9 1   
    14     8    43 1   
    15     8    44 1   
    16     9    10 1   
    17     9    11 1   
    18     9    45 1   
    19    10    46 1   
    20    10    47 1   
    21    10    69 1   
    22    11    12 1   
    23    11    48 1   
    24    11    49 1   
    25    12    13 2   
    26    12    14 1   
    27    14    15 1   
    28    14    20 1   
    29    15    16 1   
    30    15    50 1   
    31    15    51 1   
    32    16    17 1   
    33    16    21 1   
    34    16    54 1   
    35    17    18 1   
    36    17    20 1   
    37    17    55 1   
    38    18    19 1   
    39    18    56 1   
    40    18    57 1   
    41    19    58 1   
    42    20    52 1   
    43    20    53 1   
    44    21    22 ar  
    45    21    27 ar  
    46    22    23 ar  
    47    22    59 1   
    48    23    24 ar  
    49    23    28 1   
    50    24    25 1   
    51    24    26 ar  
    52    26    27 ar  
    53    26    62 1   
    54    27    60 1   
    55    28    29 1   
    56    28    61 1   
    57    29    30 2   
    58    29    31 1   
    59    31    32 1   
    60    31    63 1   
    61    31    64 1   
    62    32    33 ar  
    63    32    38 ar  
    64    33    34 ar  
    65    33    65 1   
    66    34    35 ar  
    67    34    67 1   
    68    35    36 1   
    69    35    37 ar  
    70    37    38 ar  
    71    37    68 1   
    72    38    66 1   
@<TRIPOS>SUBSTRUCTURE
     1 UEK         1 TEMP              0 ****  ****    0 ROOT
