@<TRIPOS>MOLECULE
UEN
   44    47     1     0     0
SMALL
bcc


@<TRIPOS>ATOM
      1 CAJ          0.0000     0.0000     0.0000 c3         1 UEN      -0.017400
      2 CAK          1.5280     1.2490     2.1650 c3         1 UEN      -0.041900
      3 CAX         -0.0020     1.2470     2.1640 c3         1 UEN       0.132500
      4 CAI          2.0390     0.0000     1.4430 c3         1 UEN      -0.017400
      5 CAH          1.5300     0.0000     0.0000 c3         1 UEN      -0.027400
      6 CAL         -0.5110     1.2480     0.7210 c3         1 UEN      -0.041900
      7 NAO         -0.4920     2.4440     2.8550 nu         1 UEN      -0.513900
      8 C5          -2.2300     3.5760     4.1020 ca         1 UEN      -0.432400
      9 C4          -3.5100     3.5290     4.6800 ca         1 UEN       0.325800
     10 C6          -1.7460     2.4410     3.4370 ca         1 UEN       0.634200
     11 N1          -2.5210     1.3610     3.3790 nb         1 UEN      -0.777000
     12 CAT         -1.7020     4.9170     4.3840 cc         1 UEN      -0.050400
     13 C2          -3.7250     1.3560     3.9370 ca         1 UEN       0.766900
     14 NAA         -4.4940     0.2080     3.8490 nv         1 UEN      -0.546500
     15 N3          -4.2200     2.4060     4.5690 nb         1 UEN      -0.745000
     16 CAG         -2.6610     5.5700     5.0860 cd         1 UEN      -0.286100
     17 CAD          2.0060     5.2180     3.8480 ca         1 UEN      -0.127500
     18 CAQ          2.0890     6.4510     3.2200 ca         1 UEN       0.095900
     19 CAF          0.7770     4.7170     4.2250 ca         1 UEN      -0.087000
     20 CAC          0.9410     7.1840     2.9690 ca         1 UEN      -0.127500
     21 CAE         -0.2920     6.6900     3.3430 ca         1 UEN      -0.087000
     22 CAS         -0.3800     5.4530     3.9800 ca         1 UEN      -0.008800
     23 NAP         -3.7400     4.7450     5.2640 na         1 UEN       0.275900
     24 HAK1         1.8870     2.1330     1.6530 hc         1 UEN       0.020200
     25 HAK2         1.8870     1.2460     3.1870 hc         1 UEN       0.020200
     26 HAI1         1.6760    -0.8840     1.9530 hc         1 UEN       0.015200
     27 HAI2         3.1220     0.0030     1.4430 hc         1 UEN       0.015200
     28 HAX         -0.3610     0.3600     2.6710 h1         1 UEN       0.060700
     29 HAH1         1.8900     0.8860    -0.5090 hc         1 UEN       0.014200
     30 HAH2         1.8900    -0.8860    -0.5090 hc         1 UEN       0.014200
     31 HAJ1        -0.3600     0.0030    -1.0220 hc         1 UEN       0.015200
     32 HAJ2        -0.3600    -0.8840     0.5130 hc         1 UEN       0.015200
     33 HAL1        -0.1470     2.1320     0.2120 hc         1 UEN       0.020200
     34 HAL2        -1.5940     1.2450     0.7210 hc         1 UEN       0.020200
     35 HAO          0.0530     3.2830     2.8460 hn         1 UEN       0.318800
     36 HAA1        -5.4830     0.2770     3.7080 hn         1 UEN       0.272300
     37 HAA2        -4.0680    -0.6900     3.9690 hn         1 UEN       0.272300
     38 HAG         -2.5850     6.5870     5.4510 h4         1 UEN       0.146000
     39 HAF          0.7130     3.7530     4.7160 ha         1 UEN       0.118000
     40 HAC          1.0110     8.1460     2.4760 ha         1 UEN       0.119000
     41 HAD          2.9050     4.6460     4.0390 ha         1 UEN       0.119000
     42 HAP         -4.5780     4.9960     5.7520 hn         1 UEN       0.117700
     43 HAE         -1.1890     7.2650     3.1460 ha         1 UEN       0.118000
     44 FAB          3.2940     6.9390     2.8520 f          1 UEN      -0.128900
@<TRIPOS>BOND
     1     1     5 1   
     2     1     6 1   
     3     1    31 1   
     4     1    32 1   
     5     2     3 1   
     6     2     4 1   
     7     2    24 1   
     8     2    25 1   
     9     3     6 1   
    10     3     7 1   
    11     3    28 1   
    12     4     5 1   
    13     4    26 1   
    14     4    27 1   
    15     5    29 1   
    16     5    30 1   
    17     6    33 1   
    18     6    34 1   
    19     7    10 1   
    20     7    35 1   
    21     8     9 ar  
    22     8    10 ar  
    23     8    12 1   
    24     9    15 ar  
    25     9    23 1   
    26    10    11 ar  
    27    11    13 ar  
    28    12    16 2   
    29    12    22 1   
    30    13    14 1   
    31    13    15 ar  
    32    14    36 1   
    33    14    37 1   
    34    16    23 1   
    35    16    38 1   
    36    17    18 ar  
    37    17    19 ar  
    38    17    41 1   
    39    18    20 ar  
    40    18    44 1   
    41    19    22 ar  
    42    19    39 1   
    43    20    21 ar  
    44    20    40 1   
    45    21    22 ar  
    46    21    43 1   
    47    23    42 1   
@<TRIPOS>SUBSTRUCTURE
     1 UEN         1 TEMP              0 ****  ****    0 ROOT
