@<TRIPOS>MOLECULE
molecule
   38    39     1     0     0
SMALL
bcc


@<TRIPOS>ATOM
      1 O3P          0.0000     0.0000     0.0000 o          1 UEP      -0.905500
      2 P            1.6090     0.0000     0.0000 p5         1 UEP       1.172900
      3 O1P          2.1030     0.0000     1.3960 o          1 UEP      -0.905500
      4 O2P          2.1460    -1.3150    -0.7580 o          1 UEP      -0.905500
      5 O5'          2.1470     1.3150    -0.7590 os         1 UEP      -0.564200
      6 C5'          1.9290     2.6390    -0.2690 c3         1 UEP       0.227400
      7 C4'          2.5680     3.6480    -1.2260 c3         1 UEP       0.121100
      8 C3'          2.4540     5.0780    -0.6540 c3         1 UEP       0.092100
      9 O3'          3.6730     5.4600    -0.0140 oh         1 UEP      -0.590800
     10 C2'          2.1950     5.9600    -1.8960 c3         1 UEP       0.078100
     11 O2'          3.2470     6.9130    -2.0620 oh         1 UEP      -0.597800
     12 O4'          1.8390     3.6890    -2.4720 os         1 UEP      -0.346600
     13 C1'          2.1840     4.9570    -3.0720 c3         1 UEP       0.293500
     14 N1           1.1740     5.3440    -4.0620 n          1 UEP      -0.347000
     15 C8           3.6900     6.9330    -5.3450 c3         1 UEP      -0.092100
     16 C6           1.5610     5.6600    -5.3360 cc         1 UEP       0.121400
     17 C5           0.6320     6.0160    -6.2470 cd         1 UEP      -0.370200
     18 C4          -0.7300     6.0550    -5.8640 c          1 UEP       0.715700
     19 O4          -1.5870     6.3730    -6.6690 o          1 UEP      -0.666500
     20 N3          -1.0700     5.7370    -4.5990 ns         1 UEP      -0.565500
     21 C2          -0.1230     5.3800    -3.7110 c          1 UEP       0.802500
     22 O2          -0.4450     5.0960    -2.5730 o          1 UEP      -0.604500
     23 H5'          0.8640     2.8280    -0.2020 h1         1 UEP       0.028200
     24 H5'A         2.3760     2.7390     0.7130 h1         1 UEP       0.028200
     25 H4'          3.6060     3.3990    -1.4070 h1         1 UEP       0.069700
     26 H3'          1.6200     5.1430     0.0350 h1         1 UEP       0.062700
     27 HO3'         3.4950     5.7090     0.8780 ho         1 UEP       0.392000
     28 H2'          1.2350     6.4550    -1.8140 h1         1 UEP       0.056700
     29 HO2'         2.9590     7.7560    -1.7520 ho         1 UEP       0.389000
     30 H1'          3.1650     4.9020    -3.5260 h2         1 UEP       0.082700
     31 H7           3.1050     5.4500    -6.7870 hc         1 UEP       0.070200
     32 H7A          3.5030     4.7970    -5.1930 hc         1 UEP       0.070200
     33 H8           4.2700     7.2940    -6.1860 hc         1 UEP       0.042367
     34 H8A          4.3360     6.8160    -4.4840 hc         1 UEP       0.042367
     35 H8B          2.9070     7.6450    -5.1150 hc         1 UEP       0.042367
     36 H5           0.9250     6.2680    -7.2600 ha         1 UEP       0.162000
     37 HN3         -2.0310     5.7610    -4.3200 hn         1 UEP       0.355500
     38 C7           3.0180     5.6100    -5.7190 c3         1 UEP      -0.059200
@<TRIPOS>BOND
     1     2     1 1
     2     3     2 1
     3     4     2 1
     4     2     5 1
     5     6     5 1
     6     6     7 1
     7     6    23 1
     8     6    24 1
     9    12     7 1
    10     7     8 1
    11     7    25 1
    12    10     8 1
    13     8     9 1
    14     8    26 1
    15     9    27 1
    16    13    10 1
    17    10    11 1
    18    10    28 1
    19    11    29 1
    20    12    13 1
    21    14    13 1
    22    13    30 1
    23    21    14 1
    24    16    14 1
    25    16    38 1
    26    15    38 1
    27    38    31 1
    28    38    32 1
    29    15    33 1
    30    15    34 1
    31    15    35 1
    32    17    16 2
    33    18    17 1
    34    17    36 1
    35    19    18 2
    36    18    20 1
    37    20    21 1
    38    20    37 1
    39    21    22 2
@<TRIPOS>SUBSTRUCTURE
     1 UEP         1 TEMP              0 ****  ****    0 ROOT
