@<TRIPOS>MOLECULE
UEP
   38    39     1     0     0
SMALL
bcc


@<TRIPOS>ATOM
      1 O3P          0.0000     0.0000     0.0000 o          1 UEP      -0.752167
      2 P            1.6090     0.0000     0.0000 p5         1 UEP       0.667900
      3 O1P          2.1030     0.0000     1.3960 o          1 UEP      -0.752167
      4 O2P          2.1460    -1.3150    -0.7580 o          1 UEP      -0.752167
      5 O5'          2.1470     1.3150    -0.7590 os         1 UEP      -0.467200
      6 C5'          1.9290     2.6390    -0.2690 c3         1 UEP       0.283400
      7 C4'          2.5680     3.6480    -1.2260 c3         1 UEP       0.143100
      8 C3'          2.4540     5.0780    -0.6540 c3         1 UEP       0.131100
      9 O3'          3.6730     5.4600    -0.0140 oh         1 UEP      -0.570800
     10 C2'          2.1950     5.9600    -1.8960 c3         1 UEP       0.109100
     11 O2'          3.2470     6.9130    -2.0620 oh         1 UEP      -0.575800
     12 O4'          1.8390     3.6890    -2.4720 os         1 UEP      -0.331600
     13 C1'          2.1840     4.9570    -3.0720 c3         1 UEP       0.177500
     14 N1           1.1740     5.3440    -4.0620 n          1 UEP       0.075000
     15 C8           3.6900     6.9330    -5.3450 c3         1 UEP      -0.001100
     16 C6           1.5610     5.6600    -5.3360 cc         1 UEP      -0.035600
     17 C5           0.6320     6.0160    -6.2470 cd         1 UEP      -0.360200
     18 C4          -0.7300     6.0550    -5.8640 c          1 UEP       0.631700
     19 O4          -1.5870     6.3730    -6.6690 o          1 UEP      -0.713500
     20 N3          -1.0700     5.7370    -4.5990 ns         1 UEP      -0.137500
     21 C2          -0.1230     5.3800    -3.7110 c          1 UEP       0.577500
     22 O2          -0.4450     5.0960    -2.5730 o          1 UEP      -0.643500
     23 H5'          0.8640     2.8280    -0.2020 h1         1 UEP      -0.016800
     24 H5'A         2.3760     2.7390     0.7130 h1         1 UEP      -0.016800
     25 H4'          3.6060     3.3990    -1.4070 h1         1 UEP       0.030700
     26 H3'          1.6200     5.1430     0.0350 h1         1 UEP       0.027700
     27 HO3'         3.4950     5.7090     0.8780 ho         1 UEP       0.375000
     28 H2'          1.2350     6.4550    -1.8140 h1         1 UEP       0.024700
     29 HO2'         2.9590     7.7560    -1.7520 ho         1 UEP       0.373000
     30 H1'          3.1650     4.9020    -3.5260 h2         1 UEP       0.052700
     31 H7           3.1050     5.4500    -6.7870 hc         1 UEP       0.037700
     32 H7A          3.5030     4.7970    -5.1930 hc         1 UEP       0.037700
     33 H8           4.2700     7.2940    -6.1860 hc         1 UEP       0.008033
     34 H8A          4.3360     6.8160    -4.4840 hc         1 UEP       0.008033
     35 H8B          2.9070     7.6450    -5.1150 hc         1 UEP       0.008033
     36 H5           0.9250     6.2680    -7.2600 ha         1 UEP       0.141000
     37 HN3         -2.0310     5.7610    -4.3200 hn         1 UEP       0.199500
     38 C7           3.0180     5.6100    -5.7190 c3         1 UEP       0.005800
@<TRIPOS>BOND
     1     1     2 1   
     2     2     3 1   
     3     2     4 1   
     4     2     5 1   
     5     5     6 1   
     6     6     7 1   
     7     6    23 1   
     8     6    24 1   
     9     7     8 1   
    10     7    12 1   
    11     7    25 1   
    12     8     9 1   
    13     8    10 1   
    14     8    26 1   
    15     9    27 1   
    16    10    11 1   
    17    10    13 1   
    18    10    28 1   
    19    11    29 1   
    20    12    13 1   
    21    13    14 1   
    22    13    30 1   
    23    14    16 1   
    24    14    21 1   
    25    15    33 1   
    26    15    34 1   
    27    15    35 1   
    28    15    38 1   
    29    16    17 2   
    30    16    38 1   
    31    17    18 1   
    32    17    36 1   
    33    18    19 2   
    34    18    20 1   
    35    20    21 1   
    36    20    37 1   
    37    21    22 2   
    38    31    38 1   
    39    32    38 1   
@<TRIPOS>SUBSTRUCTURE
     1 UEP         1 TEMP              0 ****  ****    0 ROOT
