@<TRIPOS>MOLECULE
molecule
   66    68     1     0     0
SMALL
bcc


@<TRIPOS>ATOM
      1 O3           0.0000     0.0000     0.0000 o          1 UET      -0.616800
      2 S            1.4210     0.0000     0.0000 s6         1 UET       1.328900
      3 O2           2.1530     0.0000     1.2180 o          1 UET      -0.616800
      4 C17          2.0580    -1.2710    -1.1260 c3         1 UET      -0.169300
      5 C18          1.8500    -2.6330    -0.5160 ca         1 UET      -0.092300
      6 C23          0.6830    -3.3300    -0.7610 ca         1 UET      -0.108500
      7 C22          0.4920    -4.5800    -0.2010 ca         1 UET      -0.123500
      8 C21          1.4710    -5.1320     0.6050 ca         1 UET      -0.116000
      9 C20          2.6390    -4.4350     0.8500 ca         1 UET      -0.123500
     10 C19          2.8310    -3.1880     0.2860 ca         1 UET      -0.108500
     11 N4           1.8290     1.4340    -0.7210 n7         1 UET      -0.888100
     12 C9           1.2640     1.7840    -2.0260 c3         1 UET       0.188500
     13 C10          2.3040     2.5520    -2.8430 c3         1 UET      -0.041100
     14 C11          3.4660     1.6450    -3.1590 ca         1 UET      -0.098300
     15 C16          3.4850     0.9340    -4.3440 ca         1 UET      -0.125000
     16 C15          4.5490     0.1020    -4.6320 ca         1 UET      -0.123000
     17 C14          5.5960    -0.0200    -3.7370 ca         1 UET      -0.121000
     18 C13          5.5770     0.6930    -2.5530 ca         1 UET      -0.123000
     19 C12          4.5140     1.5280    -2.2650 ca         1 UET      -0.125000
     20 C8           0.0430     2.6460    -1.8300 c          1 UET       0.641100
     21 O1          -0.3180     2.9390    -0.7090 o          1 UET      -0.575100
     22 N3          -0.6460     3.0920    -2.8980 ns         1 UET      -0.584900
     23 C7          -1.8320     3.9300    -2.7070 c3         1 UET       0.046000
     24 C6          -2.4140     4.2910    -4.0490 c          1 UET       0.651100
     25 O           -1.8890     3.8880    -5.0660 o          1 UET      -0.600100
     26 N2          -3.5170     5.0610    -4.1200 ns         1 UET      -0.592900
     27 C5          -4.0830     5.4130    -5.4260 c3         1 UET       0.152300
     28 C4          -5.3030     6.2740    -5.2290 ca         1 UET      -0.053300
     29 C3          -5.1740     7.6510    -5.1730 ca         1 UET      -0.100500
     30 C2          -6.2870     8.4450    -4.9940 ca         1 UET      -0.085000
     31 C24         -6.5500     5.6860    -5.1100 ca         1 UET      -0.100500
     32 C25         -7.6720     6.4700    -4.9310 ca         1 UET      -0.085000
     33 C1          -7.5460     7.8570    -4.8690 ca         1 UET      -0.192900
     34 C           -8.7450     8.7050    -4.6760 ce         1 UET       0.542800
     35 N1          -9.9880     8.1220    -4.5520 nz         1 UET      -0.802600
     36 N           -8.6260    10.0000    -4.6220 n2         1 UET      -0.679100
     37 H171         1.5300    -1.2140    -2.0700 h1         1 UET       0.102200
     38 H172         3.1160    -1.1080    -1.2930 h1         1 UET       0.102200
     39 H4           2.4180     2.0850    -0.2410 hn         1 UET       0.463800
     40 H23         -0.0840    -2.8970    -1.3920 ha         1 UET       0.136500
     41 H19          3.7470    -2.6420     0.4780 ha         1 UET       0.136500
     42 H22         -0.4230    -5.1260    -0.3930 ha         1 UET       0.135500
     43 H21          1.3210    -6.1100     1.0450 ha         1 UET       0.134000
     44 H20          3.4060    -4.8690     1.4800 ha         1 UET       0.135500
     45 H9           0.9860     0.8800    -2.5530 h1         1 UET       0.072700
     46 H101         2.6560     3.4030    -2.2720 hc         1 UET       0.062200
     47 H102         1.8550     2.8980    -3.7660 hc         1 UET       0.062200
     48 H16          2.6650     1.0290    -5.0460 ha         1 UET       0.130500
     49 H12          4.5000     2.0870    -1.3370 ha         1 UET       0.130500
     50 H15          4.5640    -0.4560    -5.5610 ha         1 UET       0.136500
     51 H14          6.4290    -0.6740    -3.9630 ha         1 UET       0.137000
     52 H13          6.3980     0.6000    -1.8510 ha         1 UET       0.136500
     53 H3          -0.3710     2.8170    -3.8200 hn         1 UET       0.337500
     54 H71C        -2.5690     3.3860    -2.1290 h1         1 UET       0.075200
     55 H72C        -1.5540     4.8340    -2.1790 h1         1 UET       0.075200
     56 H2          -3.9510     5.3930    -3.2810 hn         1 UET       0.320500
     57 H51C        -4.3600     4.5090    -5.9540 h1         1 UET       0.075200
     58 H52C        -3.3460     5.9570    -6.0040 h1         1 UET       0.075200
     59 HA          -4.1960     8.1060    -5.2700 ha         1 UET       0.167000
     60 H24         -6.6460     4.6080    -5.1590 ha         1 UET       0.167000
     61 HB          -6.1840     9.5220    -4.9490 ha         1 UET       0.141000
     62 H25         -8.6470     6.0090    -4.8360 ha         1 UET       0.141000
     63 H11N        -9.9920     7.5090    -3.7610 hn         1 UET       0.465800
     64 H12N       -10.1950     7.5990    -5.3800 hn         1 UET       0.465800
     65 H           -9.4360    10.5730    -4.4910 hn         1 UET       0.435400
     66 H131       -10.6800     8.8340    -4.4260 hn         1 UET       0.465800
@<TRIPOS>BOND
     1     1     2 2
     2     2     3 2
     3     2     4 1
     4     2    11 1
     5     4     5 1
     6     5     6 ar
     7     5    10 ar
     8     6     7 ar
     9     7     8 ar
    10     8     9 ar
    11     9    10 ar
    12    11    12 1
    13    12    13 1
    14    12    20 1
    15    13    14 1
    16    14    15 ar
    17    14    19 ar
    18    15    16 ar
    19    16    17 ar
    20    17    18 ar
    21    18    19 ar
    22    20    21 2
    23    20    22 1
    24    22    23 1
    25    23    24 1
    26    24    25 2
    27    24    26 1
    28    26    27 1
    29    27    28 1
    30    28    29 ar
    31    28    31 ar
    32    29    30 ar
    33    30    33 ar
    34    31    32 ar
    35    32    33 ar
    36    33    34 1
    37    34    35 1
    38    34    36 2
    39     4    37 1
    40     4    38 1
    41    11    39 1
    42     6    40 1
    43    10    41 1
    44     7    42 1
    45     8    43 1
    46     9    44 1
    47    12    45 1
    48    13    46 1
    49    13    47 1
    50    15    48 1
    51    19    49 1
    52    16    50 1
    53    17    51 1
    54    18    52 1
    55    22    53 1
    56    23    54 1
    57    23    55 1
    58    26    56 1
    59    27    57 1
    60    27    58 1
    61    29    59 1
    62    31    60 1
    63    30    61 1
    64    32    62 1
    65    35    63 1
    66    35    64 1
    67    36    65 1
    68    66    35 1
@<TRIPOS>SUBSTRUCTURE
     1 UET         1 TEMP              0 ****  ****    0 ROOT
