@<TRIPOS>MOLECULE
UET
   66    68     1     0     0
SMALL
bcc


@<TRIPOS>ATOM
      1 O3           0.0000     0.0000     0.0000 o          1 UET      -0.573300
      2 S            1.4210     0.0000     0.0000 s6         1 UET       0.953900
      3 O2           2.1530     0.0000     1.2180 o          1 UET      -0.573300
      4 C17          2.0580    -1.2710    -1.1260 c3         1 UET       0.052700
      5 C18          1.8500    -2.6330    -0.5160 ca         1 UET      -0.088300
      6 C23          0.6830    -3.3300    -0.7610 ca         1 UET      -0.085000
      7 C22          0.4920    -4.5800    -0.2010 ca         1 UET      -0.094000
      8 C21          1.4710    -5.1320     0.6050 ca         1 UET      -0.092000
      9 C20          2.6390    -4.4350     0.8500 ca         1 UET      -0.094000
     10 C19          2.8310    -3.1880     0.2860 ca         1 UET      -0.085000
     11 N4           1.8290     1.4340    -0.7210 n7         1 UET      -0.566100
     12 C9           1.2640     1.7840    -2.0260 c3         1 UET       0.146500
     13 C10          2.3040     2.5520    -2.8430 c3         1 UET       0.020900
     14 C11          3.4660     1.6450    -3.1590 ca         1 UET      -0.107300
     15 C16          3.4850     0.9340    -4.3440 ca         1 UET      -0.100000
     16 C15          4.5490     0.1020    -4.6320 ca         1 UET      -0.095000
     17 C14          5.5960    -0.0200    -3.7370 ca         1 UET      -0.095000
     18 C13          5.5770     0.6930    -2.5530 ca         1 UET      -0.095000
     19 C12          4.5140     1.5280    -2.2650 ca         1 UET      -0.100000
     20 C8           0.0430     2.6460    -1.8300 c          1 UET       0.551100
     21 O1          -0.3180     2.9390    -0.7090 o          1 UET      -0.614100
     22 N3          -0.6460     3.0920    -2.8980 ns         1 UET      -0.203900
     23 C7          -1.8320     3.9300    -2.7070 c3         1 UET      -0.009000
     24 C6          -2.4140     4.2910    -4.0490 c          1 UET       0.569100
     25 O           -1.8890     3.8880    -5.0660 o          1 UET      -0.637100
     26 N2          -3.5170     5.0610    -4.1200 ns         1 UET      -0.204900
     27 C5          -4.0830     5.4130    -5.4260 c3         1 UET       0.102300
     28 C4          -5.3030     6.2740    -5.2290 ca         1 UET      -0.060300
     29 C3          -5.1740     7.6510    -5.1730 ca         1 UET      -0.053000
     30 C2          -6.2870     8.4450    -4.9940 ca         1 UET      -0.072500
     31 C24         -6.5500     5.6860    -5.1100 ca         1 UET      -0.053000
     32 C25         -7.6720     6.4700    -4.9310 ca         1 UET      -0.072500
     33 C1          -7.5460     7.8570    -4.8690 ca         1 UET      -0.226900
     34 C           -8.7450     8.7050    -4.6760 ce         1 UET       0.211800
     35 N1          -9.9880     8.1220    -4.5520 nz         1 UET       0.188400
     36 N           -8.6260    10.0000    -4.6220 n2         1 UET      -0.483100
     37 H171         3.1160    -1.1080    -1.2930 h1         1 UET       0.070200
     38 H172         1.5300    -1.2140    -2.0700 h1         1 UET       0.070200
     39 H4           2.4180     2.0850    -0.2410 hn         1 UET       0.359800
     40 H23         -0.0840    -2.8970    -1.3920 ha         1 UET       0.110000
     41 H19          3.7470    -2.6420     0.4780 ha         1 UET       0.110000
     42 H22         -0.4230    -5.1260    -0.3930 ha         1 UET       0.105500
     43 H21          1.3210    -6.1100     1.0450 ha         1 UET       0.105000
     44 H20          3.4060    -4.8690     1.4800 ha         1 UET       0.105500
     45 H9           0.9860     0.8800    -2.5530 h1         1 UET       0.039700
     46 H101         1.8550     2.8980    -3.7660 hc         1 UET       0.028700
     47 H102         2.6560     3.4030    -2.2720 hc         1 UET       0.028700
     48 H16          2.6650     1.0290    -5.0460 ha         1 UET       0.107500
     49 H12          4.5000     2.0870    -1.3370 ha         1 UET       0.107500
     50 H15          4.5640    -0.4560    -5.5610 ha         1 UET       0.107500
     51 H14          6.4290    -0.6740    -3.9630 ha         1 UET       0.108000
     52 H13          6.3980     0.6000    -1.8510 ha         1 UET       0.107500
     53 H3          -0.3710     2.8170    -3.8200 hn         1 UET       0.203500
     54 H71C        -2.5690     3.3860    -2.1290 h1         1 UET       0.040200
     55 H72C        -1.5540     4.8340    -2.1790 h1         1 UET       0.040200
     56 H2          -3.9510     5.3930    -3.2810 hn         1 UET       0.178500
     57 H51C        -4.3600     4.5090    -5.9540 h1         1 UET       0.042200
     58 H52C        -3.3460     5.9570    -6.0040 h1         1 UET       0.042200
     59 HA          -4.1960     8.1060    -5.2700 ha         1 UET       0.133000
     60 H24         -6.6460     4.6080    -5.1590 ha         1 UET       0.133000
     61 HB          -6.1840     9.5220    -4.9490 ha         1 UET       0.100500
     62 H25         -8.6470     6.0090    -4.8360 ha         1 UET       0.100500
     63 H11N       -10.1950     7.5980    -5.3800 hn         1 UET       0.222800
     64 H12N       -10.6800     8.8340    -4.4270 hn         1 UET       0.222800
     65 H           -7.7240    10.4250    -4.7110 hn         1 UET       0.381400
     66 H131        -9.9920     7.5100    -3.7600 hn         1 UET       0.222800
@<TRIPOS>BOND
     1     1     2 2   
     2     2     3 2   
     3     2     4 1   
     4     2    11 1   
     5     4     5 1   
     6     4    37 1   
     7     4    38 1   
     8     5     6 ar  
     9     5    10 ar  
    10     6     7 ar  
    11     6    40 1   
    12     7     8 ar  
    13     7    42 1   
    14     8     9 ar  
    15     8    43 1   
    16     9    10 ar  
    17     9    44 1   
    18    10    41 1   
    19    11    12 1   
    20    11    39 1   
    21    12    13 1   
    22    12    20 1   
    23    12    45 1   
    24    13    14 1   
    25    13    46 1   
    26    13    47 1   
    27    14    15 ar  
    28    14    19 ar  
    29    15    16 ar  
    30    15    48 1   
    31    16    17 ar  
    32    16    50 1   
    33    17    18 ar  
    34    17    51 1   
    35    18    19 ar  
    36    18    52 1   
    37    19    49 1   
    38    20    21 2   
    39    20    22 1   
    40    22    23 1   
    41    22    53 1   
    42    23    24 1   
    43    23    54 1   
    44    23    55 1   
    45    24    25 2   
    46    24    26 1   
    47    26    27 1   
    48    26    56 1   
    49    27    28 1   
    50    27    57 1   
    51    27    58 1   
    52    28    29 ar  
    53    28    31 ar  
    54    29    30 ar  
    55    29    59 1   
    56    30    33 ar  
    57    30    61 1   
    58    31    32 ar  
    59    31    60 1   
    60    32    33 ar  
    61    32    62 1   
    62    33    34 1   
    63    34    35 1   
    64    34    36 2   
    65    35    63 1   
    66    35    64 1   
    67    35    66 1   
    68    36    65 1   
@<TRIPOS>SUBSTRUCTURE
     1 UET         1 TEMP              0 ****  ****    0 ROOT
