@<TRIPOS>MOLECULE
molecule
   32    33     1     0     0
SMALL
bcc


@<TRIPOS>ATOM
      1 C2           0.0000     0.0000     0.0000 ca         1 UFO      -0.214300
      2 C1           1.3810     0.0000     0.0000 ca         1 UFO      -0.125000
      3 C5           1.3900     0.0050     2.4040 ca         1 UFO       0.130600
      4 C4          -0.0010     0.0130     2.3930 ca         1 UFO      -0.141000
      5 C3          -0.6910     0.0050     1.1970 ca         1 UFO      -0.104000
      6 N14         -0.9980    -1.3840    -1.7300 nz         1 UFO      -0.810600
      7 C13         -0.7530     0.0000    -1.3050 c3         1 UFO       0.165100
      8 N7           2.0370     0.0220     3.6450 nh         1 UFO      -0.586000
      9 C12          1.3170    -0.8030     4.6250 c3         1 UFO       0.152100
     10 C8           3.4410    -0.3900     3.5430 c3         1 UFO       0.153800
     11 C9           4.0950     0.4060     2.4060 c3         1 UFO       0.155800
     12 N10          3.4840    -0.0240     1.1400 nh         1 UFO      -0.594000
     13 C11          3.9650     0.7940     0.0190 c3         1 UFO       0.150100
     14 C6           2.0860     0.0000     1.2010 ca         1 UFO       0.084600
     15 H1           1.9190    -0.0040    -0.9400 ha         1 UFO       0.139000
     16 H4          -0.5470     0.0170     3.3290 ha         1 UFO       0.162000
     17 H3          -1.7740     0.0050     1.1970 ha         1 UFO       0.132000
     18 HN14        -1.4780    -1.8760    -1.0020 hn         1 UFO       0.452133
     19 HN1A        -1.5590    -1.3840    -2.5590 hn         1 UFO       0.452133
     20 H13         -1.6990     0.5120    -1.1760 hx         1 UFO       0.108200
     21 H13A        -0.1670     0.5110    -2.0600 hx         1 UFO       0.108200
     22 H12          0.9820    -1.7180     4.1500 h1         1 UFO       0.051367
     23 H12A         1.9770    -1.0440     5.4490 h1         1 UFO       0.051367
     24 H12B         0.4600    -0.2550     4.9980 h1         1 UFO       0.051367
     25 H8           3.9510    -0.1800     4.4750 h1         1 UFO       0.067700
     26 H8A          3.4940    -1.4490     3.3220 h1         1 UFO       0.067700
     27 H9           3.8970     1.4610     2.5540 h1         1 UFO       0.070700
     28 H9A          5.1550     0.1830     2.3820 h1         1 UFO       0.070700
     29 H11          3.8730     0.2330    -0.9030 h1         1 UFO       0.047700
     30 H11A         3.3740     1.6990    -0.0480 h1         1 UFO       0.047700
     31 H11B         5.0050     1.0530     0.1820 h1         1 UFO       0.047700
     32 H143        -0.1250    -1.8350    -1.9200 hn         1 UFO       0.452133
@<TRIPOS>BOND
     1     5     1 ar
     2     1     2 ar
     3     1     7 1
     4    14     2 ar
     5     2    15 1
     6     8     3 1
     7     4     3 ar
     8     3    14 ar
     9     4     5 ar
    10     4    16 1
    11     5    17 1
    12     7     6 1
    13     6    18 1
    14     6    19 1
    15     7    20 1
    16     7    21 1
    17     9     8 1
    18     8    10 1
    19     9    22 1
    20     9    23 1
    21     9    24 1
    22    10    11 1
    23    10    25 1
    24    10    26 1
    25    11    12 1
    26    11    27 1
    27    11    28 1
    28    14    12 1
    29    12    13 1
    30    13    29 1
    31    13    30 1
    32    13    31 1
    33    32     6 1
@<TRIPOS>SUBSTRUCTURE
     1 UFO         1 TEMP              0 ****  ****    0 ROOT
