@<TRIPOS>MOLECULE
UFV
   19    19     1     0     0
SMALL
bcc


@<TRIPOS>ATOM
      1 C1           0.0000     0.0000     0.0000 ca         1 UFV       0.008100
      2 C2           1.3840     0.0000     0.0000 ca         1 UFV      -0.030000
      3 C3           2.0790     0.0000     1.1950 ca         1 UFV      -0.208300
      4 C4           1.3940     0.0000     2.3970 ca         1 UFV      -0.046000
      5 C5           0.0080     0.0010     2.4070 ca         1 UFV       0.018600
      6 C6          -0.6940     0.0010     1.2010 ca         1 UFV       0.074600
      7 N1          -2.0940     0.0010     1.2030 nv         1 UFV      -0.553200
      8 N2          -0.6860    -0.0000     3.6220 nv         1 UFV      -0.547200
      9 Br          -0.9450     0.0070    -1.6380 br         1 UFV      -0.108100
     10 C7           3.5850    -0.0010     1.1880 c3         1 UFV       0.642200
     11 F1           4.0460    -0.0020    -0.1330 f          1 UFV      -0.207633
     12 F2           4.0550     1.1420     1.8450 f          1 UFV      -0.207633
     13 F3           4.0540    -1.1430     1.8460 f          1 UFV      -0.207633
     14 H2           1.9250    -0.0000    -0.9390 ha         1 UFV       0.133000
     15 H4           1.9420    -0.0000     3.3320 ha         1 UFV       0.120000
     16 H21N        -0.9190     0.8660     4.0660 hn         1 UFV       0.276800
     17 H22N        -0.9180    -0.8670     4.0650 hn         1 UFV       0.276800
     18 H11N        -2.5940    -0.8660     1.1860 hn         1 UFV       0.282800
     19 H12N        -2.5940     0.8680     1.1870 hn         1 UFV       0.282800
@<TRIPOS>BOND
     1     1     2 ar  
     2     1     6 ar  
     3     1     9 1   
     4     2     3 ar  
     5     2    14 1   
     6     3     4 ar  
     7     3    10 1   
     8     4     5 ar  
     9     4    15 1   
    10     5     6 ar  
    11     5     8 1   
    12     6     7 1   
    13     7    18 1   
    14     7    19 1   
    15     8    16 1   
    16     8    17 1   
    17    10    11 1   
    18    10    12 1   
    19    10    13 1   
@<TRIPOS>SUBSTRUCTURE
     1 UFV         1 TEMP              0 ****  ****    0 ROOT
