@<TRIPOS>MOLECULE
molecule
   18    18     1     0     0
SMALL
bcc


@<TRIPOS>ATOM
      1 N            0.0000     0.0000     0.0000 nz         1 UFZ      -0.810600
      2 C            1.4690     0.0000     0.0000 c3         1 UFZ       0.160100
      3 C1           1.9720     0.0000     1.4200 ca         1 UFZ      -0.199300
      4 C2           2.1970     1.1960     2.0740 ca         1 UFZ      -0.100500
      5 C3           2.6580     1.1960     3.3780 ca         1 UFZ      -0.110500
      6 C4           2.8930    -0.0010     4.0270 ca         1 UFZ      -0.072000
      7 C5           2.6670    -1.1980     3.3730 ca         1 UFZ      -0.110500
      8 C6           2.2020    -1.1980     2.0720 ca         1 UFZ      -0.100500
      9 HN3         -0.3340    -0.0290    -0.9430 hn         1 UFZ       0.454467
     10 HN1         -0.3340     0.8310     0.4460 hn         1 UFZ       0.454467
     11 HN2         -0.3340    -0.8020     0.4970 hn         1 UFZ       0.454467
     12 H1           1.8310     0.8840    -0.5110 hx         1 UFZ       0.112700
     13 H2A          1.8310    -0.8840    -0.5110 hx         1 UFZ       0.112700
     14 H2           2.0120     2.1340     1.5650 ha         1 UFZ       0.136000
     15 H3           2.8340     2.1340     3.8900 ha         1 UFZ       0.161000
     16 H4           3.2550    -0.0010     5.0480 ha         1 UFZ       0.162000
     17 H5           2.8490    -2.1360     3.8830 ha         1 UFZ       0.161000
     18 H6           2.0260    -2.1360     1.5600 ha         1 UFZ       0.136000
@<TRIPOS>BOND
     1     1     2 1
     2     2     3 1
     3     3     8 ar
     4     3     4 ar
     5     8     7 ar
     6     4     5 ar
     7     7     6 ar
     8     5     6 ar
     9     1     9 1
    10     1    10 1
    11     1    11 1
    12     2    12 1
    13     2    13 1
    14     4    14 1
    15     5    15 1
    16     6    16 1
    17     7    17 1
    18     8    18 1
@<TRIPOS>SUBSTRUCTURE
     1 UFZ         1 TEMP              0 ****  ****    0 ROOT
