@<TRIPOS>MOLECULE
UGC
   16    13     1     0     0
SMALL
bcc


@<TRIPOS>ATOM
      1 O3          0.4680   -0.5960    0.7940 o         1 UGC     -0.219500
      2 C3         -0.1870   -0.6820    1.7920 c1        1 UGC      0.441000
      3 O4         -0.8330   -0.7720    2.7780 o         1 UGC     -0.219500
      4 C2          2.6770    0.7610   -2.4920 c2        1 UGC      0.224000
      5 O2          2.5300    2.0690   -2.1970 oh        1 UGC     -0.221000
      6 N2          2.1060   -0.0970   -1.6830 n3        1 UGC     -0.235000
      7 C1          2.9290   -2.3390   -3.0440 c1        1 UGC     -0.067000
      8 O1          3.5240   -1.7030   -3.9010 o         1 UGC     -0.365000
      9 N1          2.9850   -3.8560   -3.2150 n4        1 UGC     -0.153000
     10 H2          3.2600    0.4190   -3.3870 h5        1 UGC      0.253000
     11 H3          2.9950    2.6100   -2.8660 ho        1 UGC      0.296000
     12 H4          2.2000   -1.1140   -1.8810 hn        1 UGC      0.311000
     13 H5          2.0290   -4.1990   -3.2900 hn        1 UGC      0.214667
     14 H6          3.5150   -4.1760   -4.0270 hn        1 UGC      0.214667
     15 H22         1.5810    0.1940   -0.8780 hn        1 UGC      0.311000
     16 H13         3.4030   -4.2500   -2.3740 hn        1 UGC      0.214667
@<TRIPOS>BOND
     1    1    2 1   
     2    2    3 1   
     3    4    5 1   
     4    4    6 1   
     5    4   10 1   
     6    5   11 1   
     7    6   12 1   
     8    6   15 1   
     9    7    8 1   
    10    7    9 1   
    11    9   13 1   
    12    9   14 1   
    13    9   16 1   
@<TRIPOS>SUBSTRUCTURE
     1 UGC         1 TEMP              0 ****  ****    0 ROOT
