@<TRIPOS>MOLECULE
molecule
   49    52     1     0     0
SMALL
bcc


@<TRIPOS>ATOM
      1 C4           0.0000     0.0000     0.0000 cp         1 UGI       0.547800
      2 C5           1.3930     0.0000     0.0000 ca         1 UGI      -0.406600
      3 C6           2.0550     0.0000     1.2260 ca         1 UGI       0.670200
      4 N1           1.3420     0.0000     2.3480 nb         1 UGI      -0.790000
      5 N3          -0.6480     0.0010     1.1660 nb         1 UGI      -0.791000
      6 FAZ         -3.0850    -2.8300    -0.9760 f          1 UGI      -0.214300
      7 FBA         -2.6580    -1.3010     0.6670 f          1 UGI      -0.214300
      8 FBB         -0.9860    -2.6590    -0.0920 f          1 UGI      -0.214300
      9 CAS         -1.7740    -0.9230    -1.5040 ca         1 UGI      -0.065300
     10 CAR         -2.4510    -0.8750    -2.7070 ca         1 UGI      -0.286300
     11 CAQ         -2.0930     0.0840    -3.6490 ca         1 UGI       0.712200
     12 NAX         -2.7680     0.1390    -4.8610 nv         1 UGI      -1.002500
     13 NAP         -1.1160     0.9470    -3.4060 nb         1 UGI      -0.749000
     14 CAO         -0.4470     0.9330    -2.2720 ca         1 UGI       0.492200
     15 CAH         -0.7520     0.0070    -1.2770 cp         1 UGI      -0.295800
     16 C2           0.0170     0.0000     2.3100 ca         1 UGI       0.893900
     17 NAI         -0.6910     0.0010     3.5000 nh         1 UGI      -0.665300
     18 CAT         -0.5030     1.2800     4.2300 c3         1 UGI       0.154300
     19 CAU         -1.7160     1.3190     5.1940 c3         1 UGI      -0.092400
     20 CAV         -2.8540     0.7110     4.3410 c3         1 UGI      -0.092400
     21 CAW         -2.1440    -0.1140     3.2520 c3         1 UGI       0.154300
     22 NAG          3.4410    -0.0010     1.2750 nh         1 UGI      -0.694300
     23 CAJ          3.9950     1.1420     0.5340 c3         1 UGI       0.132300
     24 CAK          5.5240     1.0690     0.5650 c3         1 UGI       0.134400
     25 OAL          5.9680     1.0380     1.9230 os         1 UGI      -0.423600
     26 CAM          5.4480    -0.0620     2.6750 c3         1 UGI       0.134400
     27 CAN          3.9180    -0.0000     2.6660 c3         1 UGI       0.132300
     28 H1           1.9480    -0.0000    -0.9300 ha         1 UGI       0.152000
     29 H2          -3.3510    -1.4610    -2.8450 ha         1 UGI       0.157000
     30 H3          -2.5160     0.8260    -5.5430 hn         1 UGI       0.445300
     31 H4          -3.5040    -0.5110    -5.0540 hn         1 UGI       0.445300
     32 H5           0.3450     1.6530    -2.1080 h4         1 UGI       0.033100
     33 H6          -0.5340     2.1180     3.5450 h1         1 UGI       0.063700
     34 H7           0.4250     1.2670     4.7880 h1         1 UGI       0.063700
     35 H8          -1.9510     2.3390     5.4710 hc         1 UGI       0.051700
     36 H9          -1.5280     0.7090     6.0690 hc         1 UGI       0.051700
     37 H10         -3.4450     1.4990     3.8890 hc         1 UGI       0.051700
     38 H11         -3.4770     0.0690     4.9510 hc         1 UGI       0.051700
     39 H12         -2.3830     0.2850     2.2730 h1         1 UGI       0.063700
     40 H13         -2.4480    -1.1510     3.3190 h1         1 UGI       0.063700
     41 H14          3.6690     2.0650     0.9980 h1         1 UGI       0.060200
     42 H15          3.6530     1.1060    -0.4930 h1         1 UGI       0.060200
     43 H16          5.9370     1.9400     0.0710 h1         1 UGI       0.057200
     44 H17          5.8520     0.1690     0.0580 h1         1 UGI       0.057200
     45 H18          5.7740    -0.9920     2.2260 h1         1 UGI       0.057200
     46 H19          5.8050    -0.0020     3.6960 h1         1 UGI       0.057200
     47 H20          3.5190    -0.8640     3.1840 h1         1 UGI       0.060200
     48 H21          3.5910     0.9070     3.1590 h1         1 UGI       0.060200
     49 CAY         -2.1320    -1.9460    -0.4570 c3         1 UGI       0.676200
@<TRIPOS>BOND
     1    12    11 1
     2    11    10 ar
     3    11    13 ar
     4    10     9 ar
     5    13    14 ar
     6     6    49 1
     7     9    49 1
     8     9    15 ar
     9    14    15 ar
    10    49     7 1
    11    49     8 1
    12    15     1 1
    13     1     2 ar
    14     1     5 ar
    15     2     3 ar
    16     5    16 ar
    17    23    24 1
    18    23    22 1
    19    24    25 1
    20     3    22 1
    21     3     4 ar
    22    22    27 1
    23    16     4 ar
    24    16    17 1
    25    18    17 1
    26    18    19 1
    27    25    26 1
    28    17    21 1
    29    27    26 1
    30    19    20 1
    31    21    20 1
    32     2    28 1
    33    10    29 1
    34    12    30 1
    35    12    31 1
    36    14    32 1
    37    18    33 1
    38    18    34 1
    39    19    35 1
    40    19    36 1
    41    20    37 1
    42    20    38 1
    43    21    39 1
    44    21    40 1
    45    23    41 1
    46    23    42 1
    47    24    43 1
    48    24    44 1
    49    26    45 1
    50    26    46 1
    51    27    47 1
    52    27    48 1
@<TRIPOS>SUBSTRUCTURE
     1 UGI         1 TEMP              0 ****  ****    0 ROOT
