@<TRIPOS>MOLECULE
UGI
   49    52     1     0     0
SMALL
bcc


@<TRIPOS>ATOM
      1 C4           0.0000     0.0000     0.0000 cp         1 UGI       0.517800
      2 C5           1.3930     0.0000     0.0000 ca         1 UGI      -0.385600
      3 C6           2.0550     0.0000     1.2260 ca         1 UGI       0.545200
      4 N1           1.3420     0.0000     2.3480 nb         1 UGI      -0.676000
      5 N3          -0.6480     0.0010     1.1660 nb         1 UGI      -0.684000
      6 FAZ         -3.0850    -2.8300    -0.9760 f          1 UGI      -0.204633
      7 FBA         -2.6580    -1.3010     0.6670 f          1 UGI      -0.204633
      8 FBB         -0.9860    -2.6590    -0.0920 f          1 UGI      -0.204633
      9 CAS         -1.7740    -0.9230    -1.5040 ca         1 UGI      -0.087300
     10 CAR         -2.4510    -0.8750    -2.7070 ca         1 UGI      -0.258300
     11 CAQ         -2.0930     0.0840    -3.6490 ca         1 UGI       0.511200
     12 NAX         -2.7680     0.1390    -4.8610 nv         1 UGI      -0.512500
     13 NAP         -1.1160     0.9470    -3.4060 nb         1 UGI      -0.636000
     14 CAO         -0.4470     0.9330    -2.2720 ca         1 UGI       0.475200
     15 CAH         -0.7520     0.0070    -1.2770 cp         1 UGI      -0.292800
     16 C2           0.0170     0.0000     2.3100 ca         1 UGI       0.741900
     17 NAI         -0.6910     0.0010     3.5000 nh         1 UGI      -0.458300
     18 CAT         -0.5030     1.2800     4.2300 c3         1 UGI       0.131800
     19 CAU         -1.7160     1.3190     5.1940 c3         1 UGI      -0.030400
     20 CAV         -2.8540     0.7110     4.3410 c3         1 UGI      -0.030400
     21 CAW         -2.1440    -0.1140     3.2520 c3         1 UGI       0.131800
     22 NAG          3.4410    -0.0010     1.2750 nh         1 UGI      -0.458300
     23 CAJ          3.9950     1.1420     0.5340 c3         1 UGI       0.100300
     24 CAK          5.5240     1.0690     0.5650 c3         1 UGI       0.211400
     25 OAL          5.9680     1.0380     1.9230 os         1 UGI      -0.409600
     26 CAM          5.4480    -0.0620     2.6750 c3         1 UGI       0.211400
     27 CAN          3.9180    -0.0000     2.6660 c3         1 UGI       0.100300
     28 H1           1.9480    -0.0000    -0.9300 ha         1 UGI       0.138000
     29 H2          -3.3510    -1.4610    -2.8450 ha         1 UGI       0.135000
     30 H3          -2.5160     0.8260    -5.5430 hn         1 UGI       0.274300
     31 H4          -3.5040    -0.5110    -5.0540 hn         1 UGI       0.274300
     32 H5           0.3450     1.6530    -2.1080 h4         1 UGI      -0.015900
     33 H6          -0.5340     2.1180     3.5450 h1         1 UGI       0.033200
     34 H7           0.4250     1.2670     4.7880 h1         1 UGI       0.033200
     35 H8          -1.9510     2.3390     5.4710 hc         1 UGI       0.019950
     36 H9          -1.5280     0.7090     6.0690 hc         1 UGI       0.019950
     37 H10         -3.4450     1.4990     3.8890 hc         1 UGI       0.019950
     38 H11         -3.4770     0.0690     4.9510 hc         1 UGI       0.019950
     39 H12         -2.3830     0.2850     2.2730 h1         1 UGI       0.033200
     40 H13         -2.4480    -1.1510     3.3190 h1         1 UGI       0.033200
     41 H14          3.6690     2.0650     0.9980 h1         1 UGI       0.032700
     42 H15          3.6530     1.1060    -0.4930 h1         1 UGI       0.032700
     43 H16          5.9370     1.9400     0.0710 h1         1 UGI       0.015200
     44 H17          5.8520     0.1690     0.0580 h1         1 UGI       0.015200
     45 H18          5.7740    -0.9920     2.2260 h1         1 UGI       0.015200
     46 H19          5.8050    -0.0020     3.6960 h1         1 UGI       0.015200
     47 H20          3.5190    -0.8640     3.1840 h1         1 UGI       0.032700
     48 H21          3.5910     0.9070     3.1590 h1         1 UGI       0.032700
     49 CAY         -2.1320    -1.9460    -0.4570 c3         1 UGI       0.646200
@<TRIPOS>BOND
     1     1     2 ar  
     2     1     5 ar  
     3     1    15 1   
     4     2     3 ar  
     5     2    28 1   
     6     3     4 ar  
     7     3    22 1   
     8     4    16 ar  
     9     5    16 ar  
    10     6    49 1   
    11     7    49 1   
    12     8    49 1   
    13     9    10 ar  
    14     9    15 ar  
    15     9    49 1   
    16    10    11 ar  
    17    10    29 1   
    18    11    12 1   
    19    11    13 ar  
    20    12    30 1   
    21    12    31 1   
    22    13    14 ar  
    23    14    15 ar  
    24    14    32 1   
    25    16    17 1   
    26    17    18 1   
    27    17    21 1   
    28    18    19 1   
    29    18    33 1   
    30    18    34 1   
    31    19    20 1   
    32    19    35 1   
    33    19    36 1   
    34    20    21 1   
    35    20    37 1   
    36    20    38 1   
    37    21    39 1   
    38    21    40 1   
    39    22    23 1   
    40    22    27 1   
    41    23    24 1   
    42    23    41 1   
    43    23    42 1   
    44    24    25 1   
    45    24    43 1   
    46    24    44 1   
    47    25    26 1   
    48    26    27 1   
    49    26    45 1   
    50    26    46 1   
    51    27    47 1   
    52    27    48 1   
@<TRIPOS>SUBSTRUCTURE
     1 UGI         1 TEMP              0 ****  ****    0 ROOT
