@<TRIPOS>MOLECULE
UGJ
   30    33     1     0     0
SMALL
bcc


@<TRIPOS>ATOM
      1 N01          0.0000     0.0000     0.0000 nv         1 UGJ       0.082000
      2 C02          1.3910     0.0000     0.0000 c2         1 UGJ       0.028000
      3 C03          2.1290     0.0000     1.1380 c2         1 UGJ      -0.283000
      4 S04          3.8440    -0.0000     0.7750 ss         1 UGJ       0.339000
      5 C05          3.5550     0.0010    -0.9610 c2         1 UGJ      -0.019000
      6 C06          2.1780    -0.0050    -1.2180 c2         1 UGJ      -0.231000
      7 C07          1.7370    -0.0100    -2.5700 c2         1 UGJ       0.208000
      8 C08          0.2940    -0.0110    -2.8950 ca         1 UGJ      -0.085000
      9 C09         -0.3890     1.1960    -3.0530 ca         1 UGJ      -0.070000
     10 C10         -1.7350     1.1890    -3.3550 ca         1 UGJ      -0.098000
     11 C11         -2.4080    -0.0120    -3.5020 ca         1 UGJ      -0.076000
     12 C12         -1.7380    -1.2110    -3.3460 ca         1 UGJ      -0.101000
     13 C13         -0.3890    -1.2180    -3.0490 ca         1 UGJ      -0.097000
     14 Cl           0.4530    -2.7250    -2.8610 cl         1 UGJ       0.080000
     15 C15          2.7020    -0.0140    -3.5890 cu         1 UGJ      -0.185000
     16 C16          3.1320     1.3310    -3.8940 cu         1 UGJ      -0.112000
     17 N17          3.0050     2.7510    -4.0180 n1         1 UGJ      -0.153000
     18 C18          4.0650    -0.0130    -3.2350 cx         1 UGJ       0.074000
     19 N19          5.0290    -0.0170    -4.2270 n8         1 UGJ       0.158000
     20 N20          4.4330     0.0010    -1.9710 n2         1 UGJ      -0.139000
     21 C21          1.5800    -0.0000     2.4610 c1         1 UGJ      -0.049000
     22 N22          1.1550     0.0160     3.5140 n1         1 UGJ      -0.065000
     23 H011        -0.5000    -0.3100     0.8090 hn         1 UGJ       0.081000
     24 H012        -0.5000     0.2970    -0.8140 hn         1 UGJ       0.081000
     25 H09          0.1240     2.1350    -2.8840 ha         1 UGJ       0.126000
     26 H10         -2.2680     2.1240    -3.4780 ha         1 UGJ       0.115000
     27 H11         -3.4650    -0.0160    -3.7390 ha         1 UGJ       0.111000
     28 H12         -2.2700    -2.1480    -3.4620 ha         1 UGJ       0.122000
     29 H191         5.9990     0.0270    -3.9830 hn         1 UGJ       0.078000
     30 H192         4.7580    -0.0930    -5.1880 hn         1 UGJ       0.078000
@<TRIPOS>BOND
     1     1     2 1   
     2     1    23 1   
     3     1    24 1   
     4     2     3 1   
     5     2     6 1   
     6     3     4 1   
     7     3    21 1   
     8     4     5 1   
     9     5     6 1   
    10     5    20 1   
    11     6     7 1   
    12     7     8 1   
    13     7    15 1   
    14     8     9 1   
    15     8    13 1   
    16     9    10 1   
    17     9    25 1   
    18    10    11 1   
    19    10    26 1   
    20    11    12 1   
    21    11    27 1   
    22    12    13 1   
    23    12    28 1   
    24    13    14 1   
    25    15    16 1   
    26    15    18 1   
    27    16    17 1   
    28    16    18 1   
    29    18    19 1   
    30    18    20 1   
    31    19    29 1   
    32    19    30 1   
    33    21    22 1   
@<TRIPOS>SUBSTRUCTURE
     1 UGJ         1 TEMP              0 ****  ****    0 ROOT
