@<TRIPOS>MOLECULE
molecule
   30    32     1     0     0
SMALL
bcc


@<TRIPOS>ATOM
      1 N01          0.0000     0.0000     0.0000 nv         1 UGJ      -0.886600
      2 C02          1.3910     0.0000     0.0000 cc         1 UGJ       0.281800
      3 C03          2.1290     0.0000     1.1380 cd         1 UGJ      -0.106100
      4 S04          3.8440    -0.0000     0.7750 ss         1 UGJ      -0.061900
      5 C05          3.5550     0.0010    -0.9610 ca         1 UGJ       0.617600
      6 C06          2.1780    -0.0050    -1.2180 ca         1 UGJ      -0.307100
      7 C07          1.7370    -0.0100    -2.5700 cp         1 UGJ       0.184000
      8 C08          0.2940    -0.0110    -2.8950 cp         1 UGJ      -0.072000
      9 C09         -0.3890     1.1960    -3.0530 ca         1 UGJ      -0.101000
     10 C10         -1.7350     1.1890    -3.3550 ca         1 UGJ      -0.129000
     11 C11         -2.4080    -0.0120    -3.5020 ca         1 UGJ      -0.108000
     12 C12         -1.7380    -1.2110    -3.3460 ca         1 UGJ      -0.124000
     13 C13         -0.3890    -1.2180    -3.0490 ca         1 UGJ       0.052400
     14 Cl           0.4530    -2.7250    -2.8610 cl         1 UGJ      -0.083400
     15 C15          2.7020    -0.0140    -3.5890 ca         1 UGJ      -0.244300
     16 C16          3.1320     1.3310    -3.8940 cg         1 UGJ       0.159800
     17 N17          3.0050     2.7510    -4.0180 n1         1 UGJ      -0.399800
     18 C18          4.0650    -0.0130    -3.2350 ca         1 UGJ       0.802200
     19 N19          5.0290    -0.0170    -4.2270 nv         1 UGJ      -0.960500
     20 N20          4.4330     0.0010    -1.9710 nb         1 UGJ      -0.794000
     21 C21          1.5800    -0.0000     2.4610 ch         1 UGJ       0.244500
     22 N22          1.1550     0.0160     3.5140 n1         1 UGJ      -0.372800
     23 H011        -0.5000    -0.3100     0.8090 hn         1 UGJ       0.447300
     24 H012        -0.5000     0.2970    -0.8140 hn         1 UGJ       0.447300
     25 H09          0.1240     2.1350    -2.8840 ha         1 UGJ       0.156000
     26 H10         -2.2680     2.1240    -3.4780 ha         1 UGJ       0.146000
     27 H11         -3.4650    -0.0160    -3.7390 ha         1 UGJ       0.144000
     28 H12         -2.2700    -2.1480    -3.4620 ha         1 UGJ       0.153000
     29 H191         5.9990     0.0270    -3.9830 hn         1 UGJ       0.457300
     30 H192         4.7580    -0.0930    -5.1880 hn         1 UGJ       0.457300
@<TRIPOS>BOND
     1     1     2 1
     2     2     3 2
     3     2     6 1
     4     3     4 1
     5     3    21 1
     6     4     5 1
     7     5     6 ar
     8     5    20 ar
     9     6     7 ar
    10     7     8 1
    11     7    15 ar
    12     8     9 ar
    13     8    13 ar
    14     9    10 ar
    15    10    11 ar
    16    11    12 ar
    17    12    13 ar
    18    13    14 1
    19    15    16 1
    20    15    18 ar
    21    16    17 3
    22    18    19 1
    23    18    20 ar
    24    21    22 3
    25     1    23 1
    26     1    24 1
    27     9    25 1
    28    10    26 1
    29    11    27 1
    30    12    28 1
    31    19    29 1
    32    19    30 1
@<TRIPOS>SUBSTRUCTURE
     1 UGJ         1 TEMP              0 ****  ****    0 ROOT
