@<TRIPOS>MOLECULE
UGT
   41    43     1     0     0
SMALL
bcc


@<TRIPOS>ATOM
      1 N14          0.0000     0.0000     0.0000 nz         1 UGT       0.210400
      2 C06          1.3800     0.0000     0.0000 ce         1 UGT       0.206800
      3 C05          2.1130     0.0000     1.2710 cc         1 UGT      -0.181000
      4 C04          1.5560    -0.1700     2.5070 cd         1 UGT      -0.070000
      5 C03          2.4780    -0.1250     3.5290 cd         1 UGT      -0.135000
      6 C02          3.7420     0.0730     3.1440 cc         1 UGT       0.040900
      7 S01          3.8500     0.2110     1.4470 ss         1 UGT      -0.102800
      8 N07          2.0380     0.0010    -1.1400 nf         1 UGT      -0.284100
      9 C08          3.3960    -0.1540    -1.1450 ca         1 UGT      -0.018600
     10 C13          4.2230     0.9060    -1.5260 ca         1 UGT      -0.030000
     11 C09          3.9640    -1.3720    -0.7630 ca         1 UGT      -0.071000
     12 C10          5.3350    -1.5220    -0.7700 ca         1 UGT      -0.083000
     13 C11          6.1480    -0.4690    -1.1530 ca         1 UGT      -0.031000
     14 C12          5.5910     0.7420    -1.5280 ca         1 UGT      -0.084300
     15 C15          6.4850     1.8840    -1.9390 c3         1 UGT       0.265700
     16 O16          6.8200     2.6640    -0.7900 os         1 UGT      -0.409600
     17 C17          7.6680     3.7790    -1.0720 c3         1 UGT       0.173100
     18 C21          8.5650     4.1050     0.1450 c3         1 UGT      -0.037400
     19 C18          6.8340     5.0740    -1.2450 c3         1 UGT       0.113800
     20 N19          7.8060     6.1500    -0.9240 n7         1 UGT      -0.574200
     21 C20          8.6080     5.6440     0.2110 c3         1 UGT       0.146800
     22 H141        -0.3340     0.1160    -0.9360 hn         1 UGT       0.215800
     23 H142        -0.3340     0.7530     0.5680 hn         1 UGT       0.215800
     24 H04          0.4960    -0.3240     2.6660 ha         1 UGT       0.106000
     25 H03          2.1980    -0.2410     4.5690 ha         1 UGT       0.142000
     26 H02          4.5870     0.1330     3.8190 h4         1 UGT       0.169000
     27 H13          3.7890     1.8540    -1.8190 ha         1 UGT       0.122000
     28 H09          3.3300    -2.1970    -0.4620 ha         1 UGT       0.112000
     29 H10          5.7780    -2.4660    -0.4760 ha         1 UGT       0.123000
     30 H11          7.2240    -0.5920    -1.1570 ha         1 UGT       0.124000
     31 H151         7.3910     1.4910    -2.3840 h1         1 UGT       0.005200
     32 H152         5.9690     2.5050    -2.6600 h1         1 UGT       0.005200
     33 H17          8.2720     3.5960    -1.9520 h1         1 UGT       0.028700
     34 H211         8.1270     3.7030     1.0510 hc         1 UGT       0.026700
     35 H212         9.5610     3.7090    -0.0070 hc         1 UGT       0.026700
     36 H181         6.4850     5.1680    -2.2660 h1         1 UGT       0.015200
     37 H182         6.0060     5.0890    -0.5470 h1         1 UGT       0.015200
     38 H201         8.1780     5.9840     1.1460 h1         1 UGT       0.014700
     39 H202         9.6310     5.9870     0.1220 h1         1 UGT       0.014700
     40 H19          7.3120     6.9730    -0.6430 hn         1 UGT       0.257800
     41 H143        -0.3340    -0.8710     0.3630 hn         1 UGT       0.215800
@<TRIPOS>BOND
     1     1     2 1   
     2     1    22 1   
     3     1    23 1   
     4     1    41 1   
     5     2     3 1   
     6     2     8 2   
     7     3     4 2   
     8     3     7 1   
     9     4     5 1   
    10     4    24 1   
    11     5     6 2   
    12     5    25 1   
    13     6     7 1   
    14     6    26 1   
    15     8     9 1   
    16     9    10 ar  
    17     9    11 ar  
    18    10    14 ar  
    19    10    27 1   
    20    11    12 ar  
    21    11    28 1   
    22    12    13 ar  
    23    12    29 1   
    24    13    14 ar  
    25    13    30 1   
    26    14    15 1   
    27    15    16 1   
    28    15    31 1   
    29    15    32 1   
    30    16    17 1   
    31    17    18 1   
    32    17    19 1   
    33    17    33 1   
    34    18    21 1   
    35    18    34 1   
    36    18    35 1   
    37    19    20 1   
    38    19    36 1   
    39    19    37 1   
    40    20    21 1   
    41    20    40 1   
    42    21    38 1   
    43    21    39 1   
@<TRIPOS>SUBSTRUCTURE
     1 UGT         1 TEMP              0 ****  ****    0 ROOT
