@<TRIPOS>MOLECULE
molecule
   41    43     1     0     0
SMALL
bcc


@<TRIPOS>ATOM
      1 N14          0.0000     0.0000     0.0000 nz         1 UGT      -0.730600
      2 C06          1.3800     0.0000     0.0000 ce         1 UGT       0.527800
      3 C05          2.1130     0.0000     1.2710 cc         1 UGT      -0.266000
      4 C04          1.5560    -0.1700     2.5070 cd         1 UGT      -0.110000
      5 C03          2.4780    -0.1250     3.5290 cd         1 UGT      -0.161000
      6 C02          3.7420     0.0730     3.1440 cc         1 UGT      -0.087100
      7 S01          3.8500     0.2110     1.4470 ss         1 UGT       0.107200
      8 N07          2.0380     0.0010    -1.1400 nf         1 UGT      -0.505100
      9 C08          3.3960    -0.1540    -1.1450 ca         1 UGT       0.060400
     10 C13          4.2230     0.9060    -1.5260 ca         1 UGT      -0.072000
     11 C09          3.9640    -1.3720    -0.7630 ca         1 UGT      -0.115000
     12 C10          5.3350    -1.5220    -0.7700 ca         1 UGT      -0.117000
     13 C11          6.1480    -0.4690    -1.1530 ca         1 UGT      -0.075000
     14 C12          5.5910     0.7420    -1.5280 ca         1 UGT      -0.071300
     15 C15          6.4850     1.8840    -1.9390 c3         1 UGT       0.182700
     16 O16          6.8200     2.6640    -0.7900 os         1 UGT      -0.428600
     17 C17          7.6680     3.7790    -1.0720 c3         1 UGT       0.134100
     18 C21          8.5650     4.1050     0.1450 c3         1 UGT      -0.089400
     19 C18          6.8340     5.0740    -1.2450 c3         1 UGT       0.116800
     20 N19          7.8060     6.1500    -0.9240 n7         1 UGT      -0.791200
     21 C20          8.6080     5.6440     0.2110 c3         1 UGT       0.142800
     22 H141        -0.3340     0.7530     0.5680 hn         1 UGT       0.471133
     23 H142        -0.3340     0.1160    -0.9360 hn         1 UGT       0.471133
     24 H04          0.4960    -0.3240     2.6660 ha         1 UGT       0.133000
     25 H03          2.1980    -0.2410     4.5690 ha         1 UGT       0.172000
     26 H02          4.5870     0.1330     3.8190 h4         1 UGT       0.198000
     27 H13          3.7890     1.8540    -1.8190 ha         1 UGT       0.156000
     28 H09          3.3300    -2.1970    -0.4620 ha         1 UGT       0.145000
     29 H10          5.7780    -2.4660    -0.4760 ha         1 UGT       0.158000
     30 H11          7.2240    -0.5920    -1.1570 ha         1 UGT       0.159000
     31 H151         7.3910     1.4910    -2.3840 h1         1 UGT       0.044700
     32 H152         5.9690     2.5050    -2.6600 h1         1 UGT       0.044700
     33 H17          8.2720     3.5960    -1.9520 h1         1 UGT       0.062700
     34 H211         9.5610     3.7090    -0.0070 hc         1 UGT       0.059700
     35 H212         8.1270     3.7030     1.0510 hc         1 UGT       0.059700
     36 H181         6.0060     5.0890    -0.5470 h1         1 UGT       0.045200
     37 H182         6.4850     5.1680    -2.2660 h1         1 UGT       0.045200
     38 H201         8.1780     5.9840     1.1460 h1         1 UGT       0.047700
     39 H202         9.6310     5.9870     0.1220 h1         1 UGT       0.047700
     40 H19          7.3120     6.9730    -0.6430 hn         1 UGT       0.356800
     41 H143        -0.3340    -0.8710     0.3630 hn         1 UGT       0.471133
@<TRIPOS>BOND
     1     1     2 1
     2     2     3 1
     3     2     8 2
     4     3     4 2
     5     3     7 1
     6     4     5 1
     7     5     6 2
     8     6     7 1
     9     8     9 1
    10     9    10 ar
    11     9    11 ar
    12    10    14 ar
    13    11    12 ar
    14    12    13 ar
    15    13    14 ar
    16    14    15 1
    17    15    16 1
    18    16    17 1
    19    17    18 1
    20    17    19 1
    21    18    21 1
    22    19    20 1
    23    20    21 1
    24     1    22 1
    25     1    23 1
    26     4    24 1
    27     5    25 1
    28     6    26 1
    29    10    27 1
    30    11    28 1
    31    12    29 1
    32    13    30 1
    33    15    31 1
    34    15    32 1
    35    17    33 1
    36    18    34 1
    37    18    35 1
    38    19    36 1
    39    19    37 1
    40    21    38 1
    41    21    39 1
    42    20    40 1
    43    41     1 1
@<TRIPOS>SUBSTRUCTURE
     1 UGT         1 TEMP              0 ****  ****    0 ROOT
