@<TRIPOS>MOLECULE
UGX
   47    49     1     0     0
SMALL
bcc


@<TRIPOS>ATOM
      1 O13          0.0000     0.0000     0.0000 o          1 UGX      -0.658100
      2 C12          1.2120     0.0000     0.0000 c          1 UGX       0.573100
      3 N14          1.8850     0.0000     1.1680 ns         1 UGX      -0.191900
      4 C21          1.1520     0.0010     2.4370 c3         1 UGX       0.056000
      5 C15          2.1450     0.0010     3.6000 c3         1 UGX      -0.090000
      6 C24          3.0250     1.2500     3.5190 c3         1 UGX       0.005567
      7 C23          1.3800     0.0020     4.9240 c3         1 UGX       0.005567
      8 C22          3.0250    -1.2480     3.5200 c3         1 UGX       0.005567
      9 C11          1.9660    -0.0070    -1.3040 c3         1 UGX      -0.120400
     10 C6           0.9730    -0.0130    -2.4680 c3         1 UGX      -0.062000
     11 N5           1.7020    -0.1400    -3.7340 na         1 UGX       0.441900
     12 C1           2.0630    -1.2410    -4.4170 cc         1 UGX      -0.276300
     13 C7           0.1850     1.2960    -2.4730 c3         1 UGX       0.023000
     14 N8           0.9850     2.4330    -2.9120 ns         1 UGX      -0.215900
     15 C9           1.8880     2.3320    -3.9160 c          1 UGX       0.682100
     16 O10          2.4580     3.3070    -4.3680 o          1 UGX      -0.664500
     17 C4           2.1400     0.9780    -4.4310 cc         1 UGX      -0.384900
     18 C2           2.7730     0.5610    -5.5510 cd         1 UGX      -0.053000
     19 C3           2.7280    -0.8500    -5.5480 cd         1 UGX      -0.122000
     20 C16          3.2980    -1.7480    -6.5850 cd         1 UGX      -0.001000
     21 C18          3.2150    -3.0880    -6.5120 cc         1 UGX      -0.020100
     22 S20          4.0010    -3.8040    -7.9130 ss         1 UGX      -0.291800
     23 C19          4.4130    -2.2130    -8.5390 cc         1 UGX       0.005900
     24 C17          3.9590    -1.2710    -7.7150 cd         1 UGX      -0.118000
     25 H14          2.8860    -0.0210     1.1690 hn         1 UGX       0.185500
     26 H111         2.5900    -0.8910    -1.3560 hc         1 UGX       0.043700
     27 H112         2.5890     0.8780    -1.3660 hc         1 UGX       0.043700
     28 H211         0.5290     0.8850     2.4930 h1         1 UGX       0.031700
     29 H212         0.5290    -0.8840     2.4940 h1         1 UGX       0.031700
     30 H241         2.4230     2.0960     3.2100 hc         1 UGX       0.008700
     31 H242         3.4570     1.4500     4.4920 hc         1 UGX       0.008700
     32 H243         3.8170     1.0880     2.7990 hc         1 UGX       0.008700
     33 H231         0.7560     0.8860     4.9810 hc         1 UGX       0.008700
     34 H232         2.0830     0.0030     5.7480 hc         1 UGX       0.008700
     35 H233         0.7580    -0.8830     4.9820 hc         1 UGX       0.008700
     36 H221         3.4490    -1.4540     4.4960 hc         1 UGX       0.008700
     37 H222         2.4260    -2.0920     3.2010 hc         1 UGX       0.008700
     38 H223         3.8240    -1.0820     2.8070 hc         1 UGX       0.008700
     39 H6           0.2880    -0.8450    -2.3620 h1         1 UGX       0.068700
     40 H71C        -0.6630     1.1900    -3.1380 h1         1 UGX       0.047200
     41 H72C        -0.1740     1.4900    -1.4690 h1         1 UGX       0.047200
     42 H1           1.8620    -2.2640    -4.1230 h4         1 UGX       0.147000
     43 H8           0.8620     3.3170    -2.4570 hn         1 UGX       0.186500
     44 H2           3.2280     1.1900    -6.3070 ha         1 UGX       0.139000
     45 H18          2.7360    -3.6420    -5.7140 h4         1 UGX       0.148000
     46 H17          4.1000    -0.2140    -7.9040 ha         1 UGX       0.126000
     47 H19          4.9490    -2.0270    -9.4610 h4         1 UGX       0.147000
@<TRIPOS>BOND
     1     1     2 2   
     2     2     3 1   
     3     2     9 1   
     4     3     4 1   
     5     3    25 1   
     6     4     5 1   
     7     4    28 1   
     8     4    29 1   
     9     5     6 1   
    10     5     7 1   
    11     5     8 1   
    12     6    30 1   
    13     6    31 1   
    14     6    32 1   
    15     7    33 1   
    16     7    34 1   
    17     7    35 1   
    18     8    36 1   
    19     8    37 1   
    20     8    38 1   
    21     9    10 1   
    22     9    26 1   
    23     9    27 1   
    24    10    11 1   
    25    10    13 1   
    26    10    39 1   
    27    11    12 1   
    28    11    17 1   
    29    12    19 2   
    30    12    42 1   
    31    13    14 1   
    32    13    40 1   
    33    13    41 1   
    34    14    15 1   
    35    14    43 1   
    36    15    16 2   
    37    15    17 1   
    38    17    18 2   
    39    18    19 1   
    40    18    44 1   
    41    19    20 1   
    42    20    21 2   
    43    20    24 1   
    44    21    22 1   
    45    21    45 1   
    46    22    23 1   
    47    23    24 2   
    48    23    47 1   
    49    24    46 1   
@<TRIPOS>SUBSTRUCTURE
     1 UGX         1 TEMP              0 ****  ****    0 ROOT
