@<TRIPOS>MOLECULE
molecule
   47    49     1     0     0
SMALL
bcc


@<TRIPOS>ATOM
      1 O13          0.0000     0.0000     0.0000 o          1 UGX      -0.624100
      2 C12          1.2120     0.0000     0.0000 c          1 UGX       0.659100
      3 N14          1.8850     0.0000     1.1680 ns         1 UGX      -0.578900
      4 C21          1.1520     0.0010     2.4370 c3         1 UGX       0.121000
      5 C15          2.1450     0.0010     3.6000 c3         1 UGX      -0.091000
      6 C24          3.0250     1.2500     3.5190 c3         1 UGX      -0.083433
      7 C23          1.3800     0.0020     4.9240 c3         1 UGX      -0.083433
      8 C22          3.0250    -1.2480     3.5200 c3         1 UGX      -0.083433
      9 C11          1.9660    -0.0070    -1.3040 c3         1 UGX      -0.180400
     10 C6           0.9730    -0.0130    -2.4680 c3         1 UGX       0.060000
     11 N5           1.7020    -0.1400    -3.7340 na         1 UGX      -0.049100
     12 C1           2.0630    -1.2410    -4.4170 cc         1 UGX      -0.108300
     13 C7           0.1850     1.2960    -2.4730 c3         1 UGX       0.093000
     14 N8           0.9850     2.4330    -2.9120 ns         1 UGX      -0.595900
     15 C9           1.8880     2.3320    -3.9160 c          1 UGX       0.746100
     16 O10          2.4580     3.3070    -4.3680 o          1 UGX      -0.625500
     17 C4           2.1400     0.9780    -4.4310 cc         1 UGX      -0.196900
     18 C2           2.7730     0.5610    -5.5510 cd         1 UGX      -0.094000
     19 C3           2.7280    -0.8500    -5.5480 cd         1 UGX      -0.123000
     20 C16          3.2980    -1.7480    -6.5850 cd         1 UGX      -0.017000
     21 C18          3.2150    -3.0880    -6.5120 cc         1 UGX      -0.085100
     22 S20          4.0010    -3.8040    -7.9130 ss         1 UGX      -0.175800
     23 C19          4.4130    -2.2130    -8.5390 cc         1 UGX      -0.068100
     24 C17          3.9590    -1.2710    -7.7150 cd         1 UGX      -0.144000
     25 H14          2.8860    -0.0210     1.1690 hn         1 UGX       0.320500
     26 H111         2.5900    -0.8910    -1.3560 hc         1 UGX       0.078700
     27 H112         2.5890     0.8780    -1.3660 hc         1 UGX       0.078700
     28 H211         0.5290     0.8850     2.4930 h1         1 UGX       0.055700
     29 H212         0.5290    -0.8840     2.4940 h1         1 UGX       0.055700
     30 H241         2.4230     2.0960     3.2100 hc         1 UGX       0.038589
     31 H242         3.4570     1.4500     4.4920 hc         1 UGX       0.038589
     32 H243         3.8170     1.0880     2.7990 hc         1 UGX       0.038589
     33 H231         0.7560     0.8860     4.9810 hc         1 UGX       0.038589
     34 H232         2.0830     0.0030     5.7480 hc         1 UGX       0.038589
     35 H233         0.7580    -0.8830     4.9820 hc         1 UGX       0.038589
     36 H221         3.4490    -1.4540     4.4960 hc         1 UGX       0.038589
     37 H222         2.4260    -2.0920     3.2010 hc         1 UGX       0.038589
     38 H223         3.8240    -1.0820     2.8070 hc         1 UGX       0.038589
     39 H6           0.2880    -0.8450    -2.3620 h1         1 UGX       0.095700
     40 H71C        -0.6630     1.1900    -3.1380 h1         1 UGX       0.073700
     41 H72C        -0.1740     1.4900    -1.4690 h1         1 UGX       0.073700
     42 H1           1.8620    -2.2640    -4.1230 h4         1 UGX       0.169000
     43 H8           0.8620     3.3170    -2.4570 hn         1 UGX       0.329500
     44 H2           3.2280     1.1900    -6.3070 ha         1 UGX       0.167000
     45 H18          2.7360    -3.6420    -5.7140 h4         1 UGX       0.165000
     46 H17          4.1000    -0.2140    -7.9040 ha         1 UGX       0.152000
     47 H19          4.9490    -2.0270    -9.4610 h4         1 UGX       0.170000
@<TRIPOS>BOND
     1     1     2 2
     2     2     3 1
     3     2     9 1
     4     3     4 1
     5     4     5 1
     6     5     6 1
     7     5     7 1
     8     5     8 1
     9     9    10 1
    10    10    11 1
    11    10    13 1
    12    11    12 1
    13    11    17 1
    14    12    19 2
    15    13    14 1
    16    14    15 1
    17    15    16 2
    18    15    17 1
    19    17    18 2
    20    18    19 1
    21    19    20 1
    22    20    21 2
    23    20    24 1
    24    21    22 1
    25    22    23 1
    26    23    24 2
    27     3    25 1
    28     9    26 1
    29     9    27 1
    30     4    28 1
    31     4    29 1
    32     6    30 1
    33     6    31 1
    34     6    32 1
    35     7    33 1
    36     7    34 1
    37     7    35 1
    38     8    36 1
    39     8    37 1
    40     8    38 1
    41    10    39 1
    42    13    40 1
    43    13    41 1
    44    12    42 1
    45    14    43 1
    46    18    44 1
    47    21    45 1
    48    24    46 1
    49    23    47 1
@<TRIPOS>SUBSTRUCTURE
     1 UGX         1 TEMP              0 ****  ****    0 ROOT
