@<TRIPOS>MOLECULE
UHB
   66    71     1     0     0
SMALL
bcc


@<TRIPOS>ATOM
      1 C01          0.0000     0.0000     0.0000 ca         1 UHB      -0.032000
      2 C02          1.3790     0.0000     0.0000 ca         1 UHB      -0.091000
      3 C03          2.0800     0.0000     1.1920 ca         1 UHB      -0.108000
      4 C04          1.3950    -0.0000     2.4030 ca         1 UHB      -0.068400
      5 C05          0.0130    -0.0000     2.4110 ca         1 UHB      -0.148300
      6 C06         -0.6980     0.0010     1.2100 ca         1 UHB      -0.147600
      7 C07         -2.1390     0.0000     1.5260 c          1 UHB       0.643100
      8 C08         -1.0140     0.0010     3.5160 c3         1 UHB       0.113300
      9 N09         -2.3250     0.0000     2.8570 ns         1 UHB      -0.198900
     10 O10         -3.0310     0.0010     0.7000 o          1 UHB      -0.665500
     11 N11          2.1040    -0.0010     3.6100 ns         1 UHB      -0.025100
     12 C12          3.3940     0.3910     3.6340 c          1 UHB       0.556100
     13 O13          3.9110     0.8380     2.6310 o          1 UHB      -0.615100
     14 C14          4.1940     0.2720     4.9050 c3         1 UHB       0.083800
     15 N15          5.5590     0.7600     4.6720 n3         1 UHB      -0.508600
     16 C16          6.4330     0.4440     5.8100 c3         1 UHB       0.124300
     17 C17          7.8800     0.8050     5.4550 c3         1 UHB       0.040500
     18 N18          7.9170     2.2080     5.0130 n          1 UHB      -0.152800
     19 C19          6.9720     2.6330     3.9690 c3         1 UHB       0.040500
     20 C20          5.5610     2.2000     4.3820 c3         1 UHB       0.124300
     21 C21          8.7920     3.0790     5.5520 c          1 UHB       0.582100
     22 C22          8.7360     4.5360     5.1690 c3         1 UHB       0.104100
     23 C23          9.3670     4.7500     3.7750 c3         1 UHB       0.137100
     24 C24         10.1010     6.1030     3.8990 c3         1 UHB       0.110100
     25 C25          9.8280     6.5470     5.3530 c3         1 UHB       0.147800
     26 O26          9.5500     5.3230     6.0660 os         1 UHB      -0.360600
     27 O27          9.6240     2.6920     6.3440 o          1 UHB      -0.628100
     28 O28          8.3510     4.8200     2.7720 oh         1 UHB      -0.563800
     29 O29          9.5630     7.0520     2.9750 oh         1 UHB      -0.544800
     30 N30         11.0090     7.2080     5.9140 na         1 UHB       0.201000
     31 C31         12.5440     8.7060     6.4810 ca         1 UHB      -0.243200
     32 C32         11.3400     8.5330     5.7770 ca         1 UHB       0.270800
     33 C33         11.9760     6.6220     6.6750 cc         1 UHB       0.256700
     34 N34         12.8760     7.5010     7.0050 nd         1 UHB      -0.498100
     35 N35         12.4990    10.9720     5.8640 nb         1 UHB      -0.746000
     36 C36         11.3680    10.7610     5.2160 ca         1 UHB       0.690900
     37 N37         10.7930     9.5780     5.1650 nb         1 UHB      -0.680000
     38 C38         13.1190     9.9870     6.5060 ca         1 UHB       0.591200
     39 N39         14.3030    10.2190     7.1830 nv         1 UHB      -0.480500
     40 H01         -0.5420    -0.0000    -0.9380 ha         1 UHB       0.117000
     41 H02          1.9170     0.0000    -0.9400 ha         1 UHB       0.110000
     42 H03          3.1630    -0.0000     1.1830 ha         1 UHB       0.169000
     43 H081        -0.9040    -0.8890     4.1250 h1         1 UHB       0.017700
     44 H082        -0.9040     0.8910     4.1230 h1         1 UHB       0.017700
     45 HN09        -3.2110     0.0000     3.3230 hn         1 UHB       0.203500
     46 H14          4.2290    -0.7660     5.2140 h1         1 UHB       0.024200
     47 H14A         3.7260     0.8640     5.6830 h1         1 UHB       0.024200
     48 H16          6.1210     1.0170     6.6750 h1         1 UHB       0.023700
     49 H16A         6.3700    -0.6150     6.0300 h1         1 UHB       0.023700
     50 H17          8.5090     0.6830     6.3280 h1         1 UHB       0.045450
     51 H17A         8.2280     0.1630     4.6550 h1         1 UHB       0.045450
     52 H19          7.0060     3.7100     3.8670 h1         1 UHB       0.045450
     53 H19A         7.2350     2.1630     3.0290 h1         1 UHB       0.045450
     54 H20          4.8710     2.4060     3.5740 h1         1 UHB       0.023700
     55 H20A         5.2620     2.7470     5.2680 h1         1 UHB       0.023700
     56 H22          7.7140     4.8950     5.1770 h1         1 UHB       0.051700
     57 H23         10.0720     3.9580     3.5540 h1         1 UHB       0.026700
     58 H24         11.1650     5.9710     3.7390 h1         1 UHB       0.025700
     59 H25          8.9680     7.2050     5.3880 h2         1 UHB       0.068700
     60 HO28         8.7410     4.7010     1.9210 ho         1 UHB       0.401000
     61 HO29        10.1840     7.2030     2.2820 ho         1 UHB       0.393000
     62 H33         11.9920     5.5780     6.9630 h5         1 UHB       0.049800
     63 H36         10.8970    11.5930     4.7060 h5         1 UHB      -0.004900
     64 HN39        14.7600     9.4690     7.6630 hn         1 UHB       0.276300
     65 HN3A        14.7030    11.1370     7.1920 hn         1 UHB       0.276300
     66 HN11         1.6650    -0.3280     4.4470 hn         1 UHB       0.165500
@<TRIPOS>BOND
     1     1     2 ar  
     2     1     6 ar  
     3     1    40 1   
     4     2     3 ar  
     5     2    41 1   
     6     3     4 ar  
     7     3    42 1   
     8     4     5 ar  
     9     4    11 1   
    10     5     6 ar  
    11     5     8 1   
    12     6     7 1   
    13     7     9 1   
    14     7    10 2   
    15     8     9 1   
    16     8    43 1   
    17     8    44 1   
    18     9    45 1   
    19    11    12 1   
    20    11    66 1   
    21    12    13 2   
    22    12    14 1   
    23    14    15 1   
    24    14    46 1   
    25    14    47 1   
    26    15    16 1   
    27    15    20 1   
    28    16    17 1   
    29    16    48 1   
    30    16    49 1   
    31    17    18 1   
    32    17    50 1   
    33    17    51 1   
    34    18    19 1   
    35    18    21 1   
    36    19    20 1   
    37    19    52 1   
    38    19    53 1   
    39    20    54 1   
    40    20    55 1   
    41    21    22 1   
    42    21    27 2   
    43    22    23 1   
    44    22    26 1   
    45    22    56 1   
    46    23    24 1   
    47    23    28 1   
    48    23    57 1   
    49    24    25 1   
    50    24    29 1   
    51    24    58 1   
    52    25    26 1   
    53    25    30 1   
    54    25    59 1   
    55    28    60 1   
    56    29    61 1   
    57    30    32 1   
    58    30    33 1   
    59    31    32 ar  
    60    31    34 1   
    61    31    38 ar  
    62    32    37 ar  
    63    33    34 2   
    64    33    62 1   
    65    35    36 ar  
    66    35    38 ar  
    67    36    37 ar  
    68    36    63 1   
    69    38    39 1   
    70    39    64 1   
    71    39    65 1   
@<TRIPOS>SUBSTRUCTURE
     1 UHB         1 TEMP              0 ****  ****    0 ROOT
