@<TRIPOS>MOLECULE
molecule
   66    71     1     0     0
SMALL
bcc


@<TRIPOS>ATOM
      1 C01          0.0000     0.0000     0.0000 ca         1 UHB      -0.075000
      2 C02          1.3790     0.0000     0.0000 ca         1 UHB      -0.120000
      3 C03          2.0800     0.0000     1.1920 ca         1 UHB      -0.120000
      4 C04          1.3950    -0.0000     2.4030 ca         1 UHB       0.072600
      5 C05          0.0130    -0.0000     2.4110 ca         1 UHB      -0.142300
      6 C06         -0.6980     0.0010     1.2100 ca         1 UHB      -0.138600
      7 C07         -2.1390     0.0000     1.5260 c          1 UHB       0.716100
      8 C08         -1.0140     0.0010     3.5160 c3         1 UHB       0.147300
      9 N09         -2.3250     0.0000     2.8570 ns         1 UHB      -0.585900
     10 O10         -3.0310     0.0010     0.7000 o          1 UHB      -0.624500
     11 N11          2.1040    -0.0010     3.6100 ns         1 UHB      -0.475100
     12 C12          3.3940     0.3910     3.6340 c          1 UHB       0.658100
     13 O13          3.9110     0.8380     2.6310 o          1 UHB      -0.577100
     14 C14          4.1940     0.2720     4.9050 c3         1 UHB       0.089800
     15 N15          5.5590     0.7600     4.6720 n3         1 UHB      -0.709600
     16 C16          6.4330     0.4440     5.8100 c3         1 UHB       0.140800
     17 C17          7.8800     0.8050     5.4550 c3         1 UHB       0.106000
     18 N18          7.9170     2.2080     5.0130 n          1 UHB      -0.491800
     19 C19          6.9720     2.6330     3.9690 c3         1 UHB       0.106000
     20 C20          5.5610     2.2000     4.3820 c3         1 UHB       0.140800
     21 C21          8.7920     3.0790     5.5520 c          1 UHB       0.665100
     22 C22          8.7360     4.5360     5.1690 c3         1 UHB       0.070100
     23 C23          9.3670     4.7500     3.7750 c3         1 UHB       0.098100
     24 C24         10.1010     6.1030     3.8990 c3         1 UHB       0.072100
     25 C25          9.8280     6.5470     5.3530 c3         1 UHB       0.255800
     26 O26          9.5500     5.3230     6.0660 os         1 UHB      -0.379600
     27 O27          9.6240     2.6920     6.3440 o          1 UHB      -0.586100
     28 O28          8.3510     4.8200     2.7720 oh         1 UHB      -0.584800
     29 O29          9.5630     7.0520     2.9750 oh         1 UHB      -0.566800
     30 N30         11.0090     7.2080     5.9140 na         1 UHB      -0.257000
     31 C31         12.5440     8.7060     6.4810 ca         1 UHB      -0.210200
     32 C32         11.3400     8.5330     5.7770 ca         1 UHB       0.474800
     33 C33         11.9760     6.6220     6.6750 cc         1 UHB       0.434700
     34 N34         12.8760     7.5010     7.0050 nd         1 UHB      -0.589100
     35 N35         12.4990    10.9720     5.8640 nb         1 UHB      -0.836000
     36 C36         11.3680    10.7610     5.2160 ca         1 UHB       0.740900
     37 N37         10.7930     9.5780     5.1650 nb         1 UHB      -0.791000
     38 C38         13.1190     9.9870     6.5060 ca         1 UHB       0.788200
     39 N39         14.3030    10.2190     7.1830 nv         1 UHB      -0.983500
     40 H01         -0.5420    -0.0000    -0.9380 ha         1 UHB       0.150000
     41 H02          1.9170     0.0000    -0.9400 ha         1 UHB       0.143000
     42 H03          3.1630    -0.0000     1.1830 ha         1 UHB       0.188000
     43 H081        -0.9040    -0.8890     4.1250 h1         1 UHB       0.052200
     44 H082        -0.9040     0.8910     4.1230 h1         1 UHB       0.052200
     45 HN09        -3.2110     0.0000     3.3230 hn         1 UHB       0.352500
     46 H14          4.2290    -0.7660     5.2140 h1         1 UHB       0.054700
     47 H14A         3.7260     0.8640     5.6830 h1         1 UHB       0.054700
     48 H16          6.1210     1.0170     6.6750 h1         1 UHB       0.048950
     49 H16A         6.3700    -0.6150     6.0300 h1         1 UHB       0.048950
     50 H17          8.5090     0.6830     6.3280 h1         1 UHB       0.072700
     51 H17A         8.2280     0.1630     4.6550 h1         1 UHB       0.072700
     52 H19          7.0060     3.7100     3.8670 h1         1 UHB       0.072700
     53 H19A         7.2350     2.1630     3.0290 h1         1 UHB       0.072700
     54 H20          4.8710     2.4060     3.5740 h1         1 UHB       0.048950
     55 H20A         5.2620     2.7470     5.2680 h1         1 UHB       0.048950
     56 H22          7.7140     4.8950     5.1770 h1         1 UHB       0.087700
     57 H23         10.0720     3.9580     3.5540 h1         1 UHB       0.062700
     58 H24         11.1650     5.9710     3.7390 h1         1 UHB       0.063700
     59 H25          8.9680     7.2050     5.3880 h2         1 UHB       0.109700
     60 HO28         8.7410     4.7010     1.9210 ho         1 UHB       0.415000
     61 HO29        10.1840     7.2030     2.2820 ho         1 UHB       0.410000
     62 H33         11.9920     5.5780     6.9630 h5         1 UHB       0.097800
     63 H36         10.8970    11.5930     4.7060 h5         1 UHB       0.062100
     64 HN39        14.7600     9.4690     7.6630 hn         1 UHB       0.450800
     65 HN3A        14.7030    11.1370     7.1920 hn         1 UHB       0.450800
     66 HN11         1.6650    -0.3280     4.4470 hn         1 UHB       0.323500
@<TRIPOS>BOND
     1     1     2 ar
     2     1     6 ar
     3     2     3 ar
     4     3     4 ar
     5     4     5 ar
     6     4    11 1
     7     5     6 ar
     8     5     8 1
     9     6     7 1
    10     7     9 1
    11     7    10 2
    12     8     9 1
    13    11    12 1
    14    12    13 2
    15    12    14 1
    16    14    15 1
    17    15    16 1
    18    15    20 1
    19    16    17 1
    20    17    18 1
    21    18    19 1
    22    18    21 1
    23    19    20 1
    24    21    22 1
    25    21    27 2
    26    22    23 1
    27    22    26 1
    28    23    24 1
    29    23    28 1
    30    24    25 1
    31    24    29 1
    32    25    26 1
    33    25    30 1
    34    30    32 1
    35    30    33 1
    36    31    32 ar
    37    31    34 1
    38    31    38 ar
    39    32    37 ar
    40    33    34 2
    41    35    36 ar
    42    35    38 ar
    43    36    37 ar
    44    38    39 1
    45     1    40 1
    46     2    41 1
    47     3    42 1
    48     8    43 1
    49     8    44 1
    50     9    45 1
    51    14    46 1
    52    14    47 1
    53    16    48 1
    54    16    49 1
    55    17    50 1
    56    17    51 1
    57    19    52 1
    58    19    53 1
    59    20    54 1
    60    20    55 1
    61    22    56 1
    62    23    57 1
    63    24    58 1
    64    25    59 1
    65    28    60 1
    66    29    61 1
    67    33    62 1
    68    36    63 1
    69    39    64 1
    70    39    65 1
    71    11    66 1
@<TRIPOS>SUBSTRUCTURE
     1 UHB         1 TEMP              0 ****  ****    0 ROOT
