@<TRIPOS>MOLECULE
UHD
   48    49     1     0     0
SMALL
bcc


@<TRIPOS>ATOM
      1 C2          0.1130   -0.1710    0.1890 cc        1 UHD      0.343300
      2 N3          1.4250   -0.2210   -0.0660 nd        1 UHD     -0.573000
      3 C4          2.1140   -0.0870    1.1250 cd        1 UHD      0.323800
      4 C7          1.2890    0.0610    2.2610 cc        1 UHD     -0.300000
      5 C7A         1.8450    0.2090    3.5920 c         1 UHD      0.596900
      6 O7          1.1750    0.3650    4.6220 o         1 UHD     -0.524100
      7 C6          3.3320    0.1580    3.6660 cc        1 UHD      0.047900
      8 O6          3.8930    0.2640    4.9150 oh        1 UHD     -0.480100
      9 C4A         3.5960   -0.0920    1.2190 c         1 UHD      0.492800
     10 O4          4.3180   -0.1740    0.2230 o         1 UHD     -0.469100
     11 C5          4.1440    0.0160    2.5890 cd        1 UHD     -0.178400
     12 C8          5.6270   -0.0230    2.7170 c3        1 UHD     -0.032200
     13 C9          6.1600   -1.4410    2.6090 c3        1 UHD     -0.074400
     14 C10         7.6680   -1.4590    2.7410 c3        1 UHD     -0.077400
     15 C11         8.2070   -2.8700    2.6340 c3        1 UHD     -0.078400
     16 C12         9.7150   -2.8920    2.7650 c3        1 UHD     -0.079400
     17 C13        10.2550   -4.3020    2.6600 c3        1 UHD     -0.079400
     18 C14        11.7630   -4.3240    2.7910 c3        1 UHD     -0.079400
     19 C15        12.3030   -5.7340    2.6880 c3        1 UHD     -0.079400
     20 C16        13.8110   -5.7560    2.8180 c3        1 UHD     -0.079400
     21 C17        14.3520   -7.1660    2.7160 c3        1 UHD     -0.080400
     22 C18        15.8530   -7.1930    2.8460 c3        1 UHD     -0.092100
     23 S1         -0.3180    0.0320    1.8100 ss        1 UHD      0.080700
     24 H2         -0.6120   -0.2600   -0.6280 h5        1 UHD      0.067100
     25 HO6         3.1750    0.3920    5.5610 ho        1 UHD      0.444000
     26 H81         5.9350    0.4200    3.7020 hc        1 UHD      0.065700
     27 H82         6.0770    0.6040    1.8990 hc        1 UHD      0.065700
     28 H91         5.7030   -2.0780    3.4110 hc        1 UHD      0.047200
     29 H92         5.8600   -1.8740    1.6180 hc        1 UHD      0.047200
     30 H101        8.1230   -0.8210    1.9390 hc        1 UHD      0.041200
     31 H102        7.9660   -1.0160    3.7280 hc        1 UHD      0.041200
     32 H111        7.7500   -3.5090    3.4350 hc        1 UHD      0.040700
     33 H112        7.9090   -3.3120    1.6470 hc        1 UHD      0.040700
     34 H121       10.1710   -2.2540    1.9630 hc        1 UHD      0.039700
     35 H122       10.0130   -2.4470    3.7510 hc        1 UHD      0.039700
     36 H131        9.9560   -4.7470    1.6750 hc        1 UHD      0.039200
     37 H132        9.7990   -4.9400    3.4620 hc        1 UHD      0.039200
     38 H141       12.0620   -3.8780    3.7760 hc        1 UHD      0.039200
     39 H142       12.2190   -3.6870    1.9880 hc        1 UHD      0.039200
     40 H151       12.0040   -6.1800    1.7030 hc        1 UHD      0.039200
     41 H152       11.8470   -6.3710    3.4910 hc        1 UHD      0.039200
     42 H161       14.2670   -5.1200    2.0150 hc        1 UHD      0.039700
     43 H162       14.1100   -5.3100    3.8030 hc        1 UHD      0.039700
     44 H171       13.8930   -7.8020    3.5200 hc        1 UHD      0.038200
     45 H172       14.0510   -7.6120    1.7320 hc        1 UHD      0.038200
     46 H181       16.2310   -8.2410    2.7680 hc        1 UHD      0.032367
     47 H182       16.3290   -6.5860    2.0380 hc        1 UHD      0.032367
     48 H183       16.1720   -6.7760    3.8310 hc        1 UHD      0.032367
@<TRIPOS>BOND
     1    1    2 2   
     2    1   23 1   
     3    1   24 1   
     4    2    3 1   
     5    3    4 2   
     6    3    9 1   
     7    4    5 1   
     8    4   23 1   
     9    5    6 2   
    10    5    7 1   
    11    7    8 1   
    12    7   11 2   
    13    8   25 1   
    14    9   10 2   
    15    9   11 1   
    16   11   12 1   
    17   12   13 1   
    18   12   26 1   
    19   12   27 1   
    20   13   14 1   
    21   13   28 1   
    22   13   29 1   
    23   14   15 1   
    24   14   30 1   
    25   14   31 1   
    26   15   16 1   
    27   15   32 1   
    28   15   33 1   
    29   16   17 1   
    30   16   34 1   
    31   16   35 1   
    32   17   18 1   
    33   17   36 1   
    34   17   37 1   
    35   18   19 1   
    36   18   38 1   
    37   18   39 1   
    38   19   20 1   
    39   19   40 1   
    40   19   41 1   
    41   20   21 1   
    42   20   42 1   
    43   20   43 1   
    44   21   22 1   
    45   21   44 1   
    46   21   45 1   
    47   22   46 1   
    48   22   47 1   
    49   22   48 1   
@<TRIPOS>SUBSTRUCTURE
     1 UHD         1 TEMP              0 ****  ****    0 ROOT
