@<TRIPOS>MOLECULE
molecule
   48    49     1     0     0
SMALL
bcc


@<TRIPOS>ATOM
      1 C2           0.0000     0.0000     0.0000 cc         1 UHD       0.496300
      2 N3           1.3110     0.0000     0.0000 nd         1 UHD      -0.684000
      3 C4           2.0320     0.0000     1.1200 cd         1 UHD       0.352800
      4 C7           1.2860     0.0010     2.3010 cc         1 UHD      -0.198000
      5 C7A          1.9070     0.0010     3.6140 c          1 UHD       0.587900
      6 O7           1.2190     0.0020     4.6160 o          1 UHD      -0.498100
      7 C6           3.3920     0.0010     3.7220 cc         1 UHD       0.047900
      8 O6           3.9890     0.0020     4.9360 oh         1 UHD      -0.474100
      9 C4A          3.5190     0.0050     1.2720 c          1 UHD       0.488800
     10 O4           4.2240     0.0090     0.2810 o          1 UHD      -0.466100
     11 C5           4.1350     0.0000     2.5970 cd         1 UHD      -0.167400
     12 C8           5.6380    -0.0000     2.7100 c3         1 UHD      -0.028200
     13 C9           6.1560    -1.4380     2.6240 c3         1 UHD      -0.075400
     14 C10          7.6810    -1.4380     2.7370 c3         1 UHD      -0.080400
     15 C11          8.1990    -2.8750     2.6520 c3         1 UHD      -0.081400
     16 C12          9.7240    -2.8750     2.7660 c3         1 UHD      -0.081400
     17 C13         10.2430    -4.3130     2.6790 c3         1 UHD      -0.082400
     18 C14         11.7680    -4.3130     2.7930 c3         1 UHD      -0.081400
     19 C15         12.2860    -5.7500     2.7080 c3         1 UHD      -0.082400
     20 C16         13.8110    -5.7500     2.8210 c3         1 UHD      -0.081400
     21 C17         14.3290    -7.1880     2.7350 c3         1 UHD      -0.084400
     22 C18         15.8540    -7.1880     2.8500 c3         1 UHD      -0.092100
     23 S1          -0.3820     0.0020     1.6950 ss         1 UHD      -0.147300
     24 H2          -0.6370     0.3650    -0.7970 h5         1 UHD       0.089100
     25 HO6          3.6180     0.6870     5.4680 ho         1 UHD       0.436000
     26 H81          5.9290     0.4320     3.6590 hc         1 UHD       0.064700
     27 H82          6.0600     0.5850     1.9020 hc         1 UHD       0.064700
     28 H91          5.7340    -2.0230     3.4320 hc         1 UHD       0.050200
     29 H92          5.8650    -1.8700     1.6740 hc         1 UHD       0.050200
     30 H101         7.9720    -1.0050     3.6860 hc         1 UHD       0.042200
     31 H102         8.1030    -0.8530     1.9290 hc         1 UHD       0.042200
     32 H111         7.9080    -3.3090     1.7030 hc         1 UHD       0.042700
     33 H112         7.7770    -3.4600     3.4600 hc         1 UHD       0.042700
     34 H121        10.0160    -2.4430     3.7150 hc         1 UHD       0.041200
     35 H122        10.1470    -2.2900     1.9580 hc         1 UHD       0.041200
     36 H131         9.8200    -4.8980     3.4870 hc         1 UHD       0.041200
     37 H132         9.9510    -4.7460     1.7300 hc         1 UHD       0.041200
     38 H141        12.0590    -3.8800     3.7420 hc         1 UHD       0.040700
     39 H142        12.1900    -3.7280     1.9850 hc         1 UHD       0.040700
     40 H151        11.9950    -6.1840     1.7580 hc         1 UHD       0.040700
     41 H152        11.8640    -6.3350     3.5160 hc         1 UHD       0.040700
     42 H161        14.2330    -5.1650     2.0130 hc         1 UHD       0.040700
     43 H162        14.1020    -5.3180     3.7710 hc         1 UHD       0.040700
     44 H171        14.0390    -7.6200     1.7850 hc         1 UHD       0.039700
     45 H172        13.9070    -7.7730     3.5430 hc         1 UHD       0.039700
     46 H181        16.1450    -6.7560     3.7990 hc         1 UHD       0.032367
     47 H182        16.2210    -8.2050     2.7880 hc         1 UHD       0.032367
     48 H183        16.2770    -6.6020     2.0420 hc         1 UHD       0.032367
@<TRIPOS>BOND
     1     1     2 2
     2     1    23 1
     3     1    24 1
     4     2     3 1
     5     3     4 2
     6     3     9 1
     7     4     5 1
     8     4    23 1
     9     5     6 2
    10     5     7 1
    11     7     8 1
    12     7    11 2
    13     8    25 1
    14     9    10 2
    15     9    11 1
    16    11    12 1
    17    12    13 1
    18    12    26 1
    19    12    27 1
    20    13    14 1
    21    13    28 1
    22    13    29 1
    23    14    15 1
    24    14    30 1
    25    14    31 1
    26    15    16 1
    27    15    32 1
    28    15    33 1
    29    16    17 1
    30    16    34 1
    31    16    35 1
    32    17    18 1
    33    17    36 1
    34    17    37 1
    35    18    19 1
    36    18    38 1
    37    18    39 1
    38    19    20 1
    39    19    40 1
    40    19    41 1
    41    20    21 1
    42    20    42 1
    43    20    43 1
    44    21    22 1
    45    21    44 1
    46    21    45 1
    47    22    46 1
    48    22    47 1
    49    22    48 1
@<TRIPOS>SUBSTRUCTURE
     1 UHD         1 TEMP              0 ****  ****    0 ROOT
