@<TRIPOS>MOLECULE
molecule
   57    57     1     0     0
SMALL
bcc


@<TRIPOS>ATOM
      1 C            0.0000     0.0000     0.0000 c          1 UHF       0.556100
      2 N            1.9950     1.1960    -0.6910 ns         1 UHF      -0.602900
      3 O           -0.6030     0.2760     1.0090 o          1 UHF      -0.479100
      4 CA           1.5080     0.0000     0.0000 c3         1 UHF       0.045700
      5 CB           2.0190     0.0000     1.4420 c3         1 UHF      -0.083700
      6 CAA         -4.8070     0.6810    -3.9890 c3         1 UHF      -0.092100
      7 OAH         -1.0220    -2.8390     1.0050 oh         1 UHF      -0.366100
      8 CAI         -3.0620    -2.0630     0.0220 c          1 UHF       0.654900
      9 CAJ          6.0580     3.1980    -4.7450 ca         1 UHF      -0.077000
     10 CAK          4.9390     3.2800    -3.9360 ca         1 UHF      -0.255300
     11 CAL          6.4050     0.9830    -3.9170 ca         1 UHF       0.446200
     12 CAM         -4.0860     0.9590    -2.6680 c3         1 UHF      -0.084400
     13 CAO         -2.0860     0.4010    -1.2790 c3         1 UHF      -0.081400
     14 CAP         -1.0180    -1.8570    -1.2890 c3         1 UHF       0.126000
     15 NAQ          5.3330     1.0890    -3.1560 nb         1 UHF      -0.661000
     16 CAT          3.2170     1.1950    -1.2610 c          1 UHF       0.775100
     17 CAV          6.8020     2.0260    -4.7300 ca         1 UHF      -0.226600
     18 CAW          4.5980     2.1910    -3.1410 ca         1 UHF       0.534200
     19 CAY         -0.7540    -0.3520    -1.2570 c3         1 UHF      -0.194700
     20 CG1          1.6060    -1.3030     2.1290 c3         1 UHF      -0.090100
     21 CG2          3.5440     0.1170     1.4430 c3         1 UHF      -0.090100
     22 HN           1.4260     2.0180    -0.7300 hn         1 UHF       0.305500
     23 HA           1.8690    -0.8840    -0.5110 h1         1 UHF       0.092700
     24 HB           1.5920     0.8400     1.9760 hc         1 UHF       0.060700
     25 HAA         -4.1900     1.0160    -4.8140 hc         1 UHF       0.035033
     26 HAAA        -4.9900    -0.3820    -4.0840 hc         1 UHF       0.035033
     27 HAAB        -5.7500     1.2130    -4.0040 hc         1 UHF       0.035033
     28 HAB          7.8150     1.2270    -6.4240 hc         1 UHF       0.046367
     29 HABA         8.8430     1.4870    -5.0080 hc         1 UHF       0.046367
     30 HABB         8.3090     2.8660    -5.9780 hc         1 UHF       0.046367
     31 HOAH        -1.2580    -3.7490     1.0780 ho         1 UHF       0.403000
     32 HAI         -3.6310    -1.6750    -0.8150 h5         1 UHF       0.046200
     33 HAJ          6.3480     4.0310    -5.3740 ha         1 UHF       0.144000
     34 HAK          4.3350     4.1790    -3.9220 ha         1 UHF       0.137000
     35 HAL          6.9820     0.0670    -3.9030 h4         1 UHF       0.031100
     36 HAM         -4.7290     0.6820    -1.8410 hc         1 UHF       0.045200
     37 HAMA        -3.8450     2.0130    -2.6020 hc         1 UHF       0.045200
     38 HAO         -2.7030     0.0680    -0.4530 hc         1 UHF       0.060700
     39 HAOA        -1.9010     1.4650    -1.1850 hc         1 UHF       0.060700
     40 HAP         -0.0760    -2.3890    -1.3450 h1         1 UHF       0.065200
     41 HAPA        -1.6210    -2.0990    -2.1560 h1         1 UHF       0.065200
     42 HAY         -0.1650    -0.0700    -2.1210 hc         1 UHF       0.076700
     43 HG1          1.6320    -2.1140     1.4110 hc         1 UHF       0.042200
     44 HG1A         2.2910    -1.5170     2.9400 hc         1 UHF       0.042200
     45 HG1B         0.6010    -1.2010     2.5220 hc         1 UHF       0.042200
     46 HG2          3.9160    -0.0180     2.4510 hc         1 UHF       0.042200
     47 HG2A         3.9650    -0.6460     0.7980 hc         1 UHF       0.042200
     48 HG2B         3.8320     1.0960     1.0790 hc         1 UHF       0.042200
     49 NBA         -1.7320    -2.2540    -0.0720 n          1 UHF      -0.384300
     50 OAF          3.9150     0.2000    -1.2000 o          1 UHF      -0.592100
     51 CAN         -2.8060     0.1230    -2.6000 c3         1 UHF      -0.090400
     52 NAR          3.6670     2.2940    -1.8960 ns         1 UHF      -0.563400
     53 CAB          8.0280     1.8920    -5.5960 c3         1 UHF      -0.042800
     54 OAE         -3.6270    -2.3580     1.0540 o          1 UHF      -0.586100
     55 HAN         -2.1590     0.3870    -3.4270 hc         1 UHF       0.039200
     56 HANA        -3.0580    -0.9290    -2.6600 hc         1 UHF       0.039200
     57 HNAR         3.1260     3.1370    -1.8800 hn         1 UHF       0.292500
@<TRIPOS>BOND
     1     1     3 2
     2     1     4 1
     3     1    19 1
     4     2     4 1
     5     2    16 1
     6     4     5 1
     7     5    20 1
     8     5    21 1
     9     6    12 1
    10    53    17 1
    11    54     8 2
    12    50    16 2
    13     7    49 1
    14     8    49 1
    15     9    10 ar
    16     9    17 ar
    17    10    18 ar
    18    11    15 ar
    19    11    17 ar
    20    12    51 1
    21    51    13 1
    22    13    19 1
    23    14    19 1
    24    14    49 1
    25    15    18 ar
    26    52    16 1
    27    52    18 1
    28     2    22 1
    29     4    23 1
    30     5    24 1
    31     6    25 1
    32     6    26 1
    33     6    27 1
    34    53    28 1
    35    53    29 1
    36    53    30 1
    37     7    31 1
    38     8    32 1
    39     9    33 1
    40    10    34 1
    41    11    35 1
    42    12    36 1
    43    12    37 1
    44    51    55 1
    45    51    56 1
    46    13    38 1
    47    13    39 1
    48    14    40 1
    49    14    41 1
    50    52    57 1
    51    19    42 1
    52    20    43 1
    53    20    44 1
    54    20    45 1
    55    21    46 1
    56    21    47 1
    57    21    48 1
@<TRIPOS>SUBSTRUCTURE
     1 UHF         1 TEMP              0 ****  ****    0 ROOT
