@<TRIPOS>MOLECULE
UHH
   69    72     1     0     0
SMALL
bcc


@<TRIPOS>ATOM
      1 C1           0.0000     0.0000     0.0000 c2         1 UHH      -0.149200
      2 C2           1.5260     0.0000     0.0000 c3         1 UHH       0.011200
      3 C3           1.5640    -1.3400    -2.2600 c3         1 UHH      -0.055400
      4 C4           2.1080    -2.5530    -3.0420 c3         1 UHH       0.200100
      5 C5           3.6470    -2.6270    -2.9540 c3         1 UHH      -0.047000
      6 C6           4.0520    -2.6530    -1.4610 c3         1 UHH      -0.051700
      7 C7           5.5390    -3.0030    -1.4940 c3         1 UHH      -0.015400
      8 C8           5.6820    -3.9470    -2.7020 c3         1 UHH      -0.025400
      9 C9           4.3030    -3.9610    -3.4000 c3         1 UHH      -0.047700
     10 C10          4.2520    -1.4330    -3.7420 c3         1 UHH      -0.005100
     11 C11          1.9670     1.3230    -0.6740 c3         1 UHH      -0.003100
     12 C12         -0.7660    -0.2540     1.0720 c2         1 UHH      -0.156200
     13 C13         -0.2120    -0.6010     2.4180 c3         1 UHH       0.241300
     14 C14          1.2700    -0.9780     2.3630 c3         1 UHH      -0.043400
     15 C15          2.0590     0.0000     1.4750 c3         1 UHH      -0.021700
     16 C16          3.5780    -0.2220     1.5720 c3         1 UHH      -0.042400
     17 C17          4.1170    -1.4010     0.7650 c3         1 UHH       0.207100
     18 C18          3.6140    -1.3970    -0.6910 c3         1 UHH      -0.025700
     19 C19          2.0590    -1.2600    -0.7820 c3         1 UHH      -0.022700
     20 C20          4.3970    -4.2000    -4.9000 c3         1 UHH      -0.032700
     21 C21          3.0020    -4.1350    -5.5310 c3         1 UHH      -0.012100
     22 C22          5.0970    -5.5510    -5.1760 c3         1 UHH      -0.018400
     23 C23          5.3160    -5.8820    -6.6540 c3         1 UHH      -0.107400
     24 C24          6.0630    -7.1830    -6.8820 c          1 UHH       0.323100
     25 N1           6.2450    -7.4550    -8.2210 nz         1 UHH       0.179600
     26 O1           6.4850    -7.8970    -5.9790 o          1 UHH      -0.367100
     27 O2          -0.9530    -1.6960     2.9480 oh         1 UHH      -0.580800
     28 O3           3.8370    -2.6220     1.4430 oh         1 UHH      -0.580800
     29 O4           1.4900    -3.7200    -2.5010 oh         1 UHH      -0.586800
     30 H1          -0.5020     0.2230    -0.9340 ha         1 UHH       0.097000
     31 H31          0.4820    -1.3920    -2.2560 hc         1 UHH       0.022700
     32 H32          1.8690    -0.4360    -2.7730 hc         1 UHH       0.022700
     33 H4           1.8250    -2.4510    -4.0830 h1         1 UHH      -0.001300
     34 H6           3.5390    -3.4920    -1.0060 hc         1 UHH       0.061700
     35 H71          5.8270    -3.5120    -0.5820 hc         1 UHH       0.019700
     36 H72          6.1330    -2.1100    -1.6410 hc         1 UHH       0.019700
     37 H81          6.4370    -3.5700    -3.3810 hc         1 UHH       0.011200
     38 H82          5.9390    -4.9440    -2.3660 hc         1 UHH       0.011200
     39 H9           3.7240    -4.7700    -2.9700 hc         1 UHH       0.051700
     40 H101         3.5040    -1.0250    -4.4100 hc         1 UHH       0.012033
     41 H102         4.5720    -0.6660    -3.0470 hc         1 UHH       0.012033
     42 H103         5.1030    -1.7750    -4.3190 hc         1 UHH       0.012033
     43 H111         1.6600     2.1610    -0.0600 hc         1 UHH       0.007367
     44 H112         3.0440     1.3310    -0.7830 hc         1 UHH       0.007367
     45 H113         1.5040     1.4020    -1.6500 hc         1 UHH       0.007367
     46 H12         -1.8420    -0.2050     0.9570 ha         1 UHH       0.105000
     47 H13         -0.3280     0.2550     3.0720 h1         1 UHH      -0.001300
     48 H141         1.6790    -0.9540     3.3660 hc         1 UHH       0.034700
     49 H142         1.3660    -1.9790     1.9590 hc         1 UHH       0.034700
     50 H15          1.8690     0.9910     1.8680 hc         1 UHH       0.020700
     51 H161         3.8310    -0.3800     2.6130 hc         1 UHH       0.020200
     52 H162         4.0740     0.6780     1.2280 hc         1 UHH       0.020200
     53 H17          5.1940    -1.2930     0.7270 h1         1 UHH      -0.013300
     54 H18          4.0500    -0.5380    -1.1870 hc         1 UHH       0.028700
     55 H19          1.6480    -2.1260    -0.2770 hc         1 UHH       0.051700
     56 H20          5.0010    -3.4120    -5.3320 hc         1 UHH       0.028700
     57 H211         2.9690    -4.7760    -6.4030 hc         1 UHH       0.012367
     58 H212         2.2640    -4.4670    -4.8100 hc         1 UHH       0.012367
     59 H213         2.7860    -3.1140    -5.8240 hc         1 UHH       0.012367
     60 H221         4.4980    -6.3390    -4.7370 hc         1 UHH       0.038200
     61 H222         6.0620    -5.5400    -4.6840 hc         1 UHH       0.038200
     62 H231         5.8790    -5.0760    -7.1080 hc         1 UHH       0.054200
     63 H232         4.3510    -5.9470    -7.1400 hc         1 UHH       0.054200
     64 HN11         6.7700    -8.3010    -8.3210 hn         1 UHH       0.247467
     65 HN12         5.3540    -7.5610    -8.6640 hn         1 UHH       0.247467
     66 HO2         -1.4630    -1.4020     3.6850 ho         1 UHH       0.388000
     67 HO3          4.5510    -2.8300     2.0230 ho         1 UHH       0.389000
     68 HO4          0.6110    -3.7920    -2.8330 ho         1 UHH       0.393000
     69 H131         6.7370    -6.6980    -8.6520 hn         1 UHH       0.247467
@<TRIPOS>BOND
     1     1     2 1   
     2     1    12 2   
     3     1    30 1   
     4     2    11 1   
     5     2    15 1   
     6     2    19 1   
     7     3     4 1   
     8     3    19 1   
     9     3    31 1   
    10     3    32 1   
    11     4     5 1   
    12     4    29 1   
    13     4    33 1   
    14     5     6 1   
    15     5     9 1   
    16     5    10 1   
    17     6     7 1   
    18     6    18 1   
    19     6    34 1   
    20     7     8 1   
    21     7    35 1   
    22     7    36 1   
    23     8     9 1   
    24     8    37 1   
    25     8    38 1   
    26     9    20 1   
    27     9    39 1   
    28    10    40 1   
    29    10    41 1   
    30    10    42 1   
    31    11    43 1   
    32    11    44 1   
    33    11    45 1   
    34    12    13 1   
    35    12    46 1   
    36    13    14 1   
    37    13    27 1   
    38    13    47 1   
    39    14    15 1   
    40    14    48 1   
    41    14    49 1   
    42    15    16 1   
    43    15    50 1   
    44    16    17 1   
    45    16    51 1   
    46    16    52 1   
    47    17    18 1   
    48    17    28 1   
    49    17    53 1   
    50    18    19 1   
    51    18    54 1   
    52    19    55 1   
    53    20    21 1   
    54    20    22 1   
    55    20    56 1   
    56    21    57 1   
    57    21    58 1   
    58    21    59 1   
    59    22    23 1   
    60    22    60 1   
    61    22    61 1   
    62    23    24 1   
    63    23    62 1   
    64    23    63 1   
    65    24    25 1   
    66    24    26 2   
    67    25    64 1   
    68    25    65 1   
    69    25    69 1   
    70    27    66 1   
    71    28    67 1   
    72    29    68 1   
@<TRIPOS>SUBSTRUCTURE
     1 UHH         1 TEMP              0 ****  ****    0 ROOT
