@<TRIPOS>MOLECULE
molecule
   42    45     1     0     0
SMALL
bcc


@<TRIPOS>ATOM
      1 N1           0.0000     0.0000     0.0000 nb         1 UHX      -0.844000
      2 C2           1.3270     0.0000     0.0000 ca         1 UHX       0.982900
      3 N3           2.0390     0.0000     1.1140 nb         1 UHX      -0.844000
      4 C4           1.4390    -0.0010     2.3050 ca         1 UHX       0.544800
      5 C5           0.0330    -0.0010     2.3490 ca         1 UHX      -0.401400
      6 C6          -0.6820    -0.0010     1.1410 ca         1 UHX       0.798200
      7 CAA         -5.9360     1.1450     6.6260 c3         1 UHX       0.128700
      8 NAB          1.9920     0.0000    -1.2150 nv         1 UHX      -1.002500
      9 NAC         -2.0650    -0.0020     1.1390 nv         1 UHX      -1.049500
     10 CAE          1.9640     0.8470     7.9580 ca         1 UHX      -0.168000
     11 CAF          0.2700    -0.8520     8.0900 ca         1 UHX      -0.168000
     12 CAG         -3.8260    -1.0960     4.6360 ca         1 UHX      -0.196000
     13 CAH         -3.4450     1.0840     5.5800 ca         1 UHX      -0.196000
     14 CAI          1.8620     0.8520     6.5830 ca         1 UHX      -0.086000
     15 CAJ          0.1580    -0.8570     6.7160 ca         1 UHX      -0.086000
     16 CAK         -2.5500    -1.0980     4.1150 ca         1 UHX      -0.076500
     17 CAL         -2.1670     1.0890     5.0630 ca         1 UHX      -0.076500
     18 NAO          1.8990    -0.0010     3.5940 na         1 UHX      -0.268100
     19 CAQ          1.1700    -0.0020     8.7120 ca         1 UHX       0.136900
     20 CAT         -4.2770    -0.0070     5.3700 ca         1 UHX       0.140100
     21 CAU          0.9570    -0.0020     5.9500 ca         1 UHX      -0.049800
     22 CAV         -1.7110    -0.0040     4.3250 ca         1 UHX      -0.062800
     23 CAW          0.8420    -0.0020     4.4790 cc         1 UHX      -0.017300
     24 CAX         -0.3400    -0.0020     3.7680 cd         1 UHX      -0.034400
     25 HAA         -5.2760     1.2720     7.4760 h1         1 UHX       0.041700
     26 HAAA        -6.9530     1.0150     6.9750 h1         1 UHX       0.041700
     27 HAAB        -5.8810     2.0210     5.9920 h1         1 UHX       0.041700
     28 HNAB         1.5450    -0.3720    -2.0300 hn         1 UHX       0.447800
     29 HNAA         2.9220     0.3630    -1.2760 hn         1 UHX       0.447800
     30 HNAC        -2.5640    -0.7390     0.6810 hn         1 UHX       0.442800
     31 HNAD        -2.5650     0.7720     1.5300 hn         1 UHX       0.442800
     32 HAE          2.6660     1.5090     8.4500 ha         1 UHX       0.148500
     33 HAF         -0.3480    -1.5130     8.6850 ha         1 UHX       0.148500
     34 HAG         -4.4780    -1.9460     4.4740 ha         1 UHX       0.140000
     35 HAH         -3.8000     1.9330     6.1530 ha         1 UHX       0.140000
     36 HAI          2.4840     1.5170     5.9950 ha         1 UHX       0.145500
     37 HAJ         -0.5460    -1.5220     6.2310 ha         1 UHX       0.145500
     38 HAK         -2.2000    -1.9490     3.5430 ha         1 UHX       0.140500
     39 HAL         -1.5190     1.9410     5.2280 ha         1 UHX       0.140500
     40 HNAO         2.8650     0.0030     3.8560 hn         1 UHX       0.306700
     41 FAD          1.2750    -0.0020    10.0590 f          1 UHX      -0.139900
     42 OAP         -5.5360    -0.0090     5.8810 os         1 UHX      -0.329900
@<TRIPOS>BOND
     1     1     2 ar
     2     1     6 ar
     3     2     3 ar
     4     2     8 1
     5     3     4 ar
     6     4     5 ar
     7     4    18 1
     8     5     6 ar
     9     5    24 1
    10     6     9 1
    11     7    42 1
    12    41    19 1
    13    10    14 ar
    14    10    19 ar
    15    11    15 ar
    16    11    19 ar
    17    12    16 ar
    18    12    20 ar
    19    13    17 ar
    20    13    20 ar
    21    14    21 ar
    22    15    21 ar
    23    16    22 ar
    24    17    22 ar
    25    18    23 1
    26    42    20 1
    27    21    23 1
    28    22    24 1
    29    23    24 2
    30     7    25 1
    31     7    26 1
    32     7    27 1
    33     8    28 1
    34     8    29 1
    35     9    30 1
    36     9    31 1
    37    10    32 1
    38    11    33 1
    39    12    34 1
    40    13    35 1
    41    14    36 1
    42    15    37 1
    43    16    38 1
    44    17    39 1
    45    18    40 1
@<TRIPOS>SUBSTRUCTURE
     1 UHX         1 TEMP              0 ****  ****    0 ROOT
