@<TRIPOS>MOLECULE
molecule
   54    57     1     0     0
SMALL
bcc


@<TRIPOS>ATOM
      1 N1           0.0000     0.0000     0.0000 nz         1 UI1      -0.806600
      2 C2           1.4570     0.0000     0.0000 c3         1 UI1       0.152100
      3 C3           2.0160     0.0000     1.4310 ca         1 UI1      -0.192300
      4 C4           1.9620    -1.1770     2.1950 ca         1 UI1      -0.091000
      5 C5           2.4770    -1.1760     3.5000 ca         1 UI1      -0.104000
      6 C6           3.0600    -0.0010     4.0680 ca         1 UI1       0.095600
      7 N7           3.5540    -0.1940     5.4090 ns         1 UI1      -0.491100
      8 C8           2.9210     0.3120     6.4500 c          1 UI1       0.673700
      9 O9           1.9250     1.0120     6.3140 o          1 UI1      -0.579100
     10 C10          3.3930    -0.0610     7.8200 ca         1 UI1      -0.098600
     11 C11          2.6220     0.3870     8.9160 ca         1 UI1      -0.071000
     12 C12          2.9550     0.0150    10.1990 ca         1 UI1       0.205600
     13 N13          2.1120     0.4350    11.2870 nu         1 UI1      -0.799300
     14 C14          1.9030     1.7950    11.6380 ca         1 UI1       0.912900
     15 N15          1.0130     2.0730    12.6200 nb         1 UI1      -0.778000
     16 C16          0.7870     3.3470    13.0100 ca         1 UI1       0.492200
     17 C17          1.4940     4.4020    12.3930 ca         1 UI1      -0.405600
     18 C18          2.4050     4.0790    11.3760 ca         1 UI1       0.492200
     19 N19          2.5890     2.7840    11.0240 nb         1 UI1      -0.778000
     20 C20          4.0960    -0.8290    10.4230 ca         1 UI1      -0.053000
     21 C21          4.4160    -1.2230    11.7450 ca         1 UI1       0.005000
     22 C22          5.5350    -2.0470    11.9890 ca         1 UI1      -0.212900
     23 C23          6.3460    -2.4790    10.9220 ca         1 UI1      -0.143000
     24 C24          6.0280    -2.0930     9.5960 ca         1 UI1      -0.077000
     25 C25          4.8930    -1.2680     9.3450 ca         1 UI1      -0.001000
     26 C26          4.5420    -0.8900     8.0290 ca         1 UI1      -0.120000
     27 C27          5.8090    -2.4220    13.3970 ce         1 UI1       0.529800
     28 N28          5.0080    -2.0180    14.3420 n2         1 UI1      -0.692100
     29 N29          6.8610    -3.1660    13.7090 nz         1 UI1      -0.783600
     30 C30          3.1240     1.1740     3.3110 ca         1 UI1      -0.104000
     31 C31          2.5920     1.1740     1.9820 ca         1 UI1      -0.091000
     32 HN11        -0.3340     0.5940     0.7330 hn         1 UI1       0.458133
     33 HN12        -0.3340     0.3380    -0.8810 hn         1 UI1       0.458133
     34 H21A         1.8110     0.8820    -0.5190 hx         1 UI1       0.113700
     35 H22          1.8110    -0.8820    -0.5190 hx         1 UI1       0.113700
     36 H4           1.5230    -2.0770     1.7820 ha         1 UI1       0.145500
     37 H5           2.4340    -2.0850     4.0880 ha         1 UI1       0.167000
     38 HN7          4.3920    -0.7210     5.5520 hn         1 UI1       0.338500
     39 H11          1.7590     1.0190     8.7460 ha         1 UI1       0.190000
     40 H13          1.6460    -0.2690    11.8240 hn         1 UI1       0.471800
     41 H16          0.0740     3.5570    13.7980 h4         1 UI1       0.044100
     42 H17          1.3310     5.4310    12.6900 ha         1 UI1       0.163000
     43 H18          2.9630     4.8630    10.8780 h4         1 UI1       0.044100
     44 H21          3.7970    -0.8940    12.5710 ha         1 UI1       0.180000
     45 H23          7.2040    -3.1120    11.1120 ha         1 UI1       0.116000
     46 H24          6.6500    -2.4230     8.7730 ha         1 UI1       0.158000
     47 H26          5.2160    -1.1010     7.2070 ha         1 UI1       0.140000
     48 H28          5.1890    -2.2690    15.2940 hn         1 UI1       0.436400
     49 H291         6.8990    -3.2910    14.7010 hn         1 UI1       0.467133
     50 H292         7.6960    -2.7110    13.3980 hn         1 UI1       0.467133
     51 H30          3.5630     2.0730     3.7280 ha         1 UI1       0.167000
     52 H31          2.6370     2.0790     1.3880 ha         1 UI1       0.145500
     53 H131        -0.3340    -0.9220     0.1990 hn         1 UI1       0.458133
     54 H293         6.7780    -4.0620    13.2710 hn         1 UI1       0.467133
@<TRIPOS>BOND
     1     1     2 1
     2     1    32 1
     3     1    33 1
     4     2     3 1
     5     2    34 1
     6     2    35 1
     7     3     4 ar
     8     3    31 ar
     9     4     5 ar
    10     4    36 1
    11     5     6 ar
    12     5    37 1
    13     6     7 1
    14     6    30 ar
    15     7     8 1
    16     7    38 1
    17     8     9 2
    18     8    10 1
    19    10    11 ar
    20    10    26 ar
    21    11    12 ar
    22    11    39 1
    23    12    13 1
    24    12    20 ar
    25    13    14 1
    26    13    40 1
    27    14    15 ar
    28    14    19 ar
    29    15    16 ar
    30    16    17 ar
    31    16    41 1
    32    17    18 ar
    33    17    42 1
    34    18    19 ar
    35    18    43 1
    36    20    21 ar
    37    20    25 ar
    38    21    22 ar
    39    21    44 1
    40    22    23 ar
    41    22    27 1
    42    23    24 ar
    43    23    45 1
    44    24    25 ar
    45    24    46 1
    46    25    26 ar
    47    26    47 1
    48    27    28 2
    49    27    29 1
    50    28    48 1
    51    29    49 1
    52    29    50 1
    53    30    31 ar
    54    30    51 1
    55    31    52 1
    56    53     1 1
    57    54    29 1
@<TRIPOS>SUBSTRUCTURE
     1 UI1         1 TEMP              0 ****  ****    0 ROOT
