@<TRIPOS>MOLECULE
UI1
   54    57     1     0     0
SMALL
bcc


@<TRIPOS>ATOM
      1 N1           0.0000     0.0000     0.0000 nz         1 UI1       0.088400
      2 C2           1.4570     0.0000     0.0000 c3         1 UI1       0.025100
      3 C3           2.0160     0.0000     1.4310 ca         1 UI1      -0.197300
      4 C4           1.9620    -1.1770     2.1950 ca         1 UI1      -0.055500
      5 C5           2.4770    -1.1760     3.5000 ca         1 UI1      -0.062000
      6 C6           3.0600    -0.0010     4.0680 ca         1 UI1      -0.041400
      7 N7           3.5540    -0.1940     5.4090 ns         1 UI1      -0.061100
      8 C8           2.9210     0.3120     6.4500 c          1 UI1       0.580700
      9 O9           1.9250     1.0120     6.3140 o          1 UI1      -0.626100
     10 C10          3.3930    -0.0610     7.8200 ca         1 UI1      -0.105600
     11 C11          2.6220     0.3870     8.9160 ca         1 UI1      -0.029000
     12 C12          2.9550     0.0150    10.1990 ca         1 UI1       0.046600
     13 N13          2.1120     0.4350    11.2870 nu         1 UI1      -0.366300
     14 C14          1.9030     1.7950    11.6380 ca         1 UI1       0.701900
     15 N15          1.0130     2.0730    12.6200 nb         1 UI1      -0.689500
     16 C16          0.7870     3.3470    13.0100 ca         1 UI1       0.493700
     17 C17          1.4940     4.4020    12.3930 ca         1 UI1      -0.371600
     18 C18          2.4050     4.0790    11.3760 ca         1 UI1       0.493700
     19 N19          2.5890     2.7840    11.0240 nb         1 UI1      -0.689500
     20 C20          4.0960    -0.8290    10.4230 ca         1 UI1      -0.027000
     21 C21          4.4160    -1.2230    11.7450 ca         1 UI1      -0.024000
     22 C22          5.5350    -2.0470    11.9890 ca         1 UI1      -0.230900
     23 C23          6.3460    -2.4790    10.9220 ca         1 UI1      -0.115000
     24 C24          6.0280    -2.0930     9.5960 ca         1 UI1      -0.022000
     25 C25          4.8930    -1.2680     9.3450 ca         1 UI1      -0.008000
     26 C26          4.5420    -0.8900     8.0290 ca         1 UI1      -0.087000
     27 C27          5.8090    -2.4220    13.3970 ce         1 UI1       0.197800
     28 N28          5.0080    -2.0180    14.3420 n2         1 UI1      -0.492100
     29 N29          6.8610    -3.1660    13.7090 nz         1 UI1       0.210400
     30 C30          3.1240     1.1740     3.3110 ca         1 UI1      -0.062000
     31 C31          2.5920     1.1740     1.9820 ca         1 UI1      -0.055500
     32 HN11        -0.3340     0.3300    -0.8840 hn         1 UI1       0.223800
     33 HN12        -0.3340    -0.9310     0.1560 hn         1 UI1       0.223800
     34 H21A         1.8110     0.8820    -0.5190 hx         1 UI1       0.082700
     35 H22          1.8110    -0.8830    -0.5190 hx         1 UI1       0.082700
     36 H4           1.5230    -2.0770     1.7820 ha         1 UI1       0.113000
     37 H5           2.4340    -2.0850     4.0880 ha         1 UI1       0.130000
     38 HN7          4.3930    -0.7200     5.5520 hn         1 UI1       0.185500
     39 H11          1.7620     1.0240     8.7460 ha         1 UI1       0.155000
     40 H13          1.6450    -0.2690    11.8240 hn         1 UI1       0.299800
     41 H16          0.0740     3.5570    13.7980 h4         1 UI1      -0.006900
     42 H17          1.3310     5.4310    12.6900 ha         1 UI1       0.139000
     43 H18          2.9630     4.8630    10.8780 h4         1 UI1      -0.006900
     44 H21          3.7970    -0.8940    12.5700 ha         1 UI1       0.117000
     45 H23          7.2040    -3.1120    11.1120 ha         1 UI1       0.094000
     46 H24          6.6500    -2.4230     8.7730 ha         1 UI1       0.122000
     47 H26          5.2170    -1.0970     7.2080 ha         1 UI1       0.114000
     48 H28          4.2100    -1.4560    14.1180 hn         1 UI1       0.381400
     49 H291         7.6970    -2.7060    13.4070 hn         1 UI1       0.220133
     50 H292         6.8930    -3.2990    14.7010 hn         1 UI1       0.220133
     51 H30          3.5630     2.0730     3.7280 ha         1 UI1       0.130000
     52 H31          2.6370     2.0790     1.3880 ha         1 UI1       0.113000
     53 H131        -0.3340     0.6400     0.6930 hn         1 UI1       0.223800
     54 H293         6.7900    -4.0540    13.2520 hn         1 UI1       0.220133
@<TRIPOS>BOND
     1     1     2 1   
     2     1    32 1   
     3     1    33 1   
     4     1    53 1   
     5     2     3 1   
     6     2    34 1   
     7     2    35 1   
     8     3     4 ar  
     9     3    31 ar  
    10     4     5 ar  
    11     4    36 1   
    12     5     6 ar  
    13     5    37 1   
    14     6     7 1   
    15     6    30 ar  
    16     7     8 1   
    17     7    38 1   
    18     8     9 2   
    19     8    10 1   
    20    10    11 ar  
    21    10    26 ar  
    22    11    12 ar  
    23    11    39 1   
    24    12    13 1   
    25    12    20 ar  
    26    13    14 1   
    27    13    40 1   
    28    14    15 ar  
    29    14    19 ar  
    30    15    16 ar  
    31    16    17 ar  
    32    16    41 1   
    33    17    18 ar  
    34    17    42 1   
    35    18    19 ar  
    36    18    43 1   
    37    20    21 ar  
    38    20    25 ar  
    39    21    22 ar  
    40    21    44 1   
    41    22    23 ar  
    42    22    27 1   
    43    23    24 ar  
    44    23    45 1   
    45    24    25 ar  
    46    24    46 1   
    47    25    26 ar  
    48    26    47 1   
    49    27    28 2   
    50    27    29 1   
    51    28    48 1   
    52    29    49 1   
    53    29    50 1   
    54    29    54 1   
    55    30    31 ar  
    56    30    51 1   
    57    31    52 1   
@<TRIPOS>SUBSTRUCTURE
     1 UI1         1 TEMP              0 ****  ****    0 ROOT
