@<TRIPOS>MOLECULE
molecule
   34    36     1     0     0
SMALL
bcc


@<TRIPOS>ATOM
      1 C1           0.0000     0.0000     0.0000 ca         1 UI2      -0.058000
      2 C2           1.3620     0.0000     0.0000 ca         1 UI2      -0.151000
      3 C3           2.0640     0.0000     1.2160 ca         1 UI2       0.008000
      4 C4           1.3430    -0.0000     2.4370 ca         1 UI2      -0.085000
      5 C5          -0.0690    -0.0000     2.4060 ca         1 UI2       0.198600
      6 C6          -0.7200     0.0000     1.1900 ca         1 UI2      -0.123000
      7 C10          3.4720    -0.0000     1.2400 ca         1 UI2      -0.071000
      8 C11          4.1300    -0.0010     2.4270 ca         1 UI2      -0.157000
      9 C12          3.4250    -0.0010     3.6430 ca         1 UI2      -0.222900
     10 C13          2.0410    -0.0070     3.6520 ca         1 UI2       0.013000
     11 N17         -0.7980    -0.0000     3.5930 nu         1 UI2      -0.756300
     12 C18         -2.0210     0.6490     3.6560 ca         1 UI2       0.920900
     13 N19         -2.7560     0.5410     4.7530 nb         1 UI2      -0.786000
     14 C20         -3.9270     1.1480     4.8450 ca         1 UI2       0.499700
     15 C21         -4.3820     1.9050     3.7760 ca         1 UI2      -0.415600
     16 C22         -3.5870     1.9980     2.6440 ca         1 UI2       0.499700
     17 N23         -2.4240     1.3690     2.6190 nb         1 UI2      -0.786000
     18 C28          4.1680    -0.0030     4.9220 ce         1 UI2       0.551800
     19 N29          3.5190    -0.0030     6.0530 n2         1 UI2      -0.706100
     20 N30          5.5460    -0.0030     4.9190 nz         1 UI2      -0.799600
     21 H1          -0.5320     0.0000    -0.9440 ha         1 UI2       0.152000
     22 H2           1.9040    -0.0000    -0.9380 ha         1 UI2       0.149000
     23 H6          -1.8030     0.0000     1.1620 ha         1 UI2       0.178000
     24 H10          4.0290     0.0000     0.3110 ha         1 UI2       0.156000
     25 H11          5.2140     0.0040     2.4370 ha         1 UI2       0.099000
     26 H13          1.5010    -0.0070     4.5910 ha         1 UI2       0.164000
     27 H17         -0.4600    -0.5080     4.3870 hn         1 UI2       0.469800
     28 H20         -4.5230     1.0550     5.7440 h4         1 UI2       0.041100
     29 H21         -5.3390     2.4120     3.8240 ha         1 UI2       0.159000
     30 H22         -3.9120     2.5830     1.7930 h4         1 UI2       0.041100
     31 H29          4.0200    -0.0040     6.9190 hn         1 UI2       0.428400
     32 H301         5.8790     0.8160     4.4490 hn         1 UI2       0.463467
     33 H302         5.8790    -0.8190     4.4450 hn         1 UI2       0.463467
     34 H303         5.8810    -0.0050     5.8620 hn         1 UI2       0.463467
@<TRIPOS>BOND
     1     1     2 ar
     2     1     6 ar
     3     1    21 1
     4     2     3 ar
     5     2    22 1
     6     3     4 ar
     7     3     7 ar
     8     4     5 ar
     9     4    10 ar
    10     5     6 ar
    11     5    11 1
    12     6    23 1
    13     7     8 ar
    14     7    24 1
    15     8     9 ar
    16     8    25 1
    17     9    10 ar
    18     9    18 1
    19    10    26 1
    20    11    12 1
    21    11    27 1
    22    12    13 ar
    23    12    17 ar
    24    13    14 ar
    25    14    15 ar
    26    14    28 1
    27    15    16 ar
    28    15    29 1
    29    16    17 ar
    30    16    30 1
    31    18    19 2
    32    18    20 1
    33    19    31 1
    34    20    32 1
    35    20    33 1
    36    34    20 1
@<TRIPOS>SUBSTRUCTURE
     1 UI2         1 TEMP              0 ****  ****    0 ROOT
