@<TRIPOS>MOLECULE
UI3
   41    43     1     0     0
SMALL
bcc


@<TRIPOS>ATOM
      1 C1           0.0000     0.0000     0.0000 ca         1 UI3      -0.166000
      2 C2           1.3610     0.0000     0.0000 ca         1 UI3      -0.044000
      3 C3           2.0680     0.0000     1.2150 ca         1 UI3      -0.050000
      4 C4           1.3520     0.0010     2.4390 ca         1 UI3       0.003000
      5 C5          -0.0630     0.0070     2.4150 ca         1 UI3      -0.021000
      6 C6          -0.7210     0.0000     1.1940 ca         1 UI3       0.165100
      7 C9           3.4750     0.0000     1.2330 ca         1 UI3      -0.012000
      8 C10          4.1390     0.0000     2.4170 ca         1 UI3      -0.148000
      9 C11          3.4400     0.0010     3.6350 ca         1 UI3      -0.229900
     10 C12          2.0550     0.0010     3.6500 ca         1 UI3      -0.016000
     11 C16          4.1880     0.0010     4.9120 ce         1 UI3       0.214800
     12 N17          3.5440     0.0010     6.0450 n2         1 UI3      -0.501100
     13 N18          5.5670    -0.0000     4.9030 nz         1 UI3       0.190400
     14 O19         -2.0800     0.0010     1.1610 os         1 UI3      -0.269900
     15 C20         -2.4590     0.0010    -0.2170 c3         1 UI3       0.212700
     16 C24         -0.8330     0.0130     3.6820 cc         1 UI3      -0.282300
     17 C25         -1.6590    -0.9780     4.1300 cd         1 UI3      -0.105300
     18 N26         -2.1620    -0.5830     5.3180 na         1 UI3       0.252900
     19 N27         -1.6450     0.6840     5.6130 nd         1 UI3      -0.528800
     20 C28         -0.8520     1.0460     4.6400 cc         1 UI3       0.392200
     21 S34         -3.2120    -1.4480     6.2610 s6         1 UI3       0.960000
     22 O35         -2.9460    -0.9500     7.5660 o          1 UI3      -0.552800
     23 O36         -2.9330    -2.7920     5.8940 o          1 UI3      -0.552800
     24 C37         -4.8390    -0.9140     5.6640 c3         1 UI3       0.028700
     25 H1          -0.5320    -0.0050    -0.9430 ha         1 UI3       0.148000
     26 H2           1.9020    -0.0000    -0.9390 ha         1 UI3       0.119000
     27 H9           4.0280    -0.0000     0.3010 ha         1 UI3       0.121000
     28 H10          5.2230    -0.0000     2.4220 ha         1 UI3       0.082000
     29 H12          1.5190     0.0010     4.5920 ha         1 UI3       0.123000
     30 H17          2.5430     0.0020     6.0540 hn         1 UI3       0.384400
     31 H181         5.8970    -0.8150     4.4240 hn         1 UI3       0.220133
     32 H182         5.9070    -0.0060     5.8440 hn         1 UI3       0.220133
     33 H201        -2.0670     0.8880    -0.6990 h1         1 UI3       0.010700
     34 H202        -2.0580    -0.8810    -0.7020 h1         1 UI3       0.010700
     35 H203        -3.5390    -0.0040    -0.2940 h1         1 UI3       0.010700
     36 H25         -1.8670    -1.9140     3.6270 h4         1 UI3       0.167000
     37 H28         -0.3030     1.9790     4.5810 h4         1 UI3       0.007100
     38 H371        -5.0330    -1.3610     4.6960 h1         1 UI3       0.072367
     39 H372        -4.8540     0.1650     5.5720 h1         1 UI3       0.072367
     40 H373        -5.6030    -1.2280     6.3650 h1         1 UI3       0.072367
     41 H183         5.8980     0.8130     4.4240 hn         1 UI3       0.220133
@<TRIPOS>BOND
     1     1     2 ar  
     2     1     6 ar  
     3     1    25 1   
     4     2     3 ar  
     5     2    26 1   
     6     3     4 ar  
     7     3     7 ar  
     8     4     5 ar  
     9     4    10 ar  
    10     5     6 ar  
    11     5    16 1   
    12     6    14 1   
    13     7     8 ar  
    14     7    27 1   
    15     8     9 ar  
    16     8    28 1   
    17     9    10 ar  
    18     9    11 1   
    19    10    29 1   
    20    11    12 2   
    21    11    13 1   
    22    12    30 1   
    23    13    31 1   
    24    13    32 1   
    25    13    41 1   
    26    14    15 1   
    27    15    33 1   
    28    15    34 1   
    29    15    35 1   
    30    16    17 2   
    31    16    20 1   
    32    17    18 1   
    33    17    36 1   
    34    18    19 1   
    35    18    21 1   
    36    19    20 2   
    37    20    37 1   
    38    21    22 2   
    39    21    23 2   
    40    21    24 1   
    41    24    38 1   
    42    24    39 1   
    43    24    40 1   
@<TRIPOS>SUBSTRUCTURE
     1 UI3         1 TEMP              0 ****  ****    0 ROOT
