@<TRIPOS>MOLECULE
UIB
   66    70     1     0     0
SMALL
bcc


@<TRIPOS>ATOM
      1 N1           0.0000     0.0000     0.0000 nz         1 UIB       0.120400
      2 C3           1.3780     0.0000     0.0000 ce         1 UIB       0.247800
      3 N2           2.0280     0.0000     1.1290 n2         1 UIB      -0.479100
      4 C4           2.1180     0.0010    -1.2810 ca         1 UIB      -0.209900
      5 C5           3.5120     0.0010    -1.2840 ca         1 UIB      -0.059500
      6 C6           4.1980     0.0000    -2.4830 ca         1 UIB      -0.054000
      7 C7           3.5040     0.0000    -3.6790 ca         1 UIB      -0.006300
      8 C10          4.2580    -0.0000    -4.9840 c3         1 UIB       0.175800
      9 C22          4.5590    -1.4480    -5.4390 c3         1 UIB      -0.128700
     10 C16          4.7280    -1.2940    -6.9790 c3         1 UIB      -0.056700
     11 C15          4.0050     0.0110    -7.3480 c3         1 UIB       0.112200
     12 C13          4.9900     1.0290    -7.9230 c3         1 UIB      -0.028100
     13 C14          2.8950    -0.2740    -8.3620 c3         1 UIB      -0.028100
     14 N11          3.4120     0.5370    -6.0800 n3         1 UIB      -0.529600
     15 C12          3.6170     1.9910    -6.0980 c3         1 UIB       0.146100
     16 C17          3.9230    -2.4960    -7.5120 c3         1 UIB      -0.015300
     17 N19          2.9600    -2.8340    -6.4600 n          1 UIB      -0.125800
     18 C23          1.7830    -3.6820    -6.6550 c3         1 UIB       0.114300
     19 C24          0.5720    -2.8150    -6.8830 ca         1 UIB      -0.124300
     20 C32          0.2270    -2.4370    -8.1680 ca         1 UIB      -0.085000
     21 C31         -0.8840    -1.6440    -8.3820 ca         1 UIB      -0.083000
     22 C30         -1.6550    -1.2230    -7.3100 ca         1 UIB       0.070100
     23 C26         -1.3070    -1.6040    -6.0170 ca         1 UIB       0.040100
     24 C25         -0.1960    -2.4040    -5.8090 ca         1 UIB      -0.069000
     25 O27         -2.2110    -1.0680    -5.1470 os         1 UIB      -0.332900
     26 C28         -2.8770    -0.0240    -5.8780 c3         1 UIB       0.432200
     27 O29         -2.7780    -0.4500    -7.2490 os         1 UIB      -0.302900
     28 C20          3.3130    -2.2910    -5.2870 c          1 UIB       0.647500
     29 O21          2.6990    -2.4350    -4.2520 o          1 UIB      -0.700500
     30 C18          4.8560    -3.6800    -7.7730 c3         1 UIB      -0.044400
     31 C41          4.0690    -4.8140    -8.4320 c3         1 UIB      -0.005100
     32 C8           2.1200     0.0050    -3.6830 ca         1 UIB      -0.054000
     33 C9           1.4250    -0.0000    -2.4910 ca         1 UIB      -0.059500
     34 HN11        -0.3340    -0.8010    -0.4990 hn         1 UIB       0.226133
     35 HN12        -0.3340    -0.0320     0.9430 hn         1 UIB       0.226133
     36 HN2          1.5270    -0.0000     1.9950 hn         1 UIB       0.332400
     37 H5           4.0560     0.0620    -0.3490 ha         1 UIB       0.101500
     38 H6           5.2810    -0.0020    -2.4860 ha         1 UIB       0.133500
     39 H10          5.1750     0.5690    -4.9010 h1         1 UIB       0.040700
     40 H22          5.4300    -1.8770    -4.9580 hc         1 UIB       0.068700
     41 H16          5.7650    -1.3080    -7.2910 hc         1 UIB       0.064700
     42 H131         4.4540     1.9220    -8.2220 hc         1 UIB       0.023367
     43 H132         5.7260     1.2850    -7.1700 hc         1 UIB       0.023367
     44 H133         5.4890     0.6020    -8.7840 hc         1 UIB       0.023367
     45 H141         2.4240     0.6570    -8.6540 hc         1 UIB       0.023367
     46 H142         2.1560    -0.9280    -7.9140 hc         1 UIB       0.023367
     47 H143         3.3180    -0.7540    -9.2360 hc         1 UIB       0.023367
     48 H121         4.6760     2.2070    -6.0280 h1         1 UIB       0.016700
     49 H122         3.1010     2.4390    -5.2580 h1         1 UIB       0.016700
     50 H123         3.2260     2.3990    -7.0220 h1         1 UIB       0.016700
     51 H17          3.4000    -2.2190    -8.4200 h1         1 UIB       0.076700
     52 H231         1.6290    -4.2940    -5.7750 h1         1 UIB       0.044700
     53 H232         1.9370    -4.3210    -7.5160 h1         1 UIB       0.044700
     54 H32          0.8330    -2.7560    -9.0070 ha         1 UIB       0.113000
     55 H31         -1.1520    -1.3490    -9.3890 ha         1 UIB       0.120000
     56 H25          0.0730    -2.7080    -4.8040 ha         1 UIB       0.125000
     57 H281        -3.9180     0.0250    -5.5830 h2         1 UIB       0.013200
     58 H282        -2.3490     0.9130    -5.7450 h2         1 UIB       0.013200
     59 H181         5.2710    -4.0270    -6.8340 hc         1 UIB       0.026200
     60 H182         5.6600    -3.3690    -8.4300 hc         1 UIB       0.026200
     61 H411         4.7430    -5.4340    -9.0110 hc         1 UIB       0.009700
     62 H412         3.5930    -5.4160    -7.6680 hc         1 UIB       0.009700
     63 H413         3.3130    -4.3960    -9.0860 hc         1 UIB       0.009700
     64 H8           1.5810     0.0150    -4.6230 ha         1 UIB       0.133500
     65 H9           0.4020     0.3550    -2.4900 ha         1 UIB       0.101500
     66 H13         -0.3340     0.8410    -0.4280 hn         1 UIB       0.226133
@<TRIPOS>BOND
     1     1     2 1   
     2     1    34 1   
     3     1    35 1   
     4     1    66 1   
     5     2     3 2   
     6     2     4 1   
     7     3    36 1   
     8     4     5 ar  
     9     4    33 ar  
    10     5     6 ar  
    11     5    37 1   
    12     6     7 ar  
    13     6    38 1   
    14     7     8 1   
    15     7    32 ar  
    16     8     9 1   
    17     8    14 1   
    18     8    39 1   
    19     9    10 1   
    20     9    28 1   
    21     9    40 1   
    22    10    11 1   
    23    10    16 1   
    24    10    41 1   
    25    11    12 1   
    26    11    13 1   
    27    11    14 1   
    28    12    42 1   
    29    12    43 1   
    30    12    44 1   
    31    13    45 1   
    32    13    46 1   
    33    13    47 1   
    34    14    15 1   
    35    15    48 1   
    36    15    49 1   
    37    15    50 1   
    38    16    17 1   
    39    16    30 1   
    40    16    51 1   
    41    17    18 1   
    42    17    28 1   
    43    18    19 1   
    44    18    52 1   
    45    18    53 1   
    46    19    20 ar  
    47    19    24 ar  
    48    20    21 ar  
    49    20    54 1   
    50    21    22 ar  
    51    21    55 1   
    52    22    23 ar  
    53    22    27 1   
    54    23    24 ar  
    55    23    25 1   
    56    24    56 1   
    57    25    26 1   
    58    26    27 1   
    59    26    57 1   
    60    26    58 1   
    61    28    29 2   
    62    30    31 1   
    63    30    59 1   
    64    30    60 1   
    65    31    61 1   
    66    31    62 1   
    67    31    63 1   
    68    32    33 ar  
    69    32    64 1   
    70    33    65 1   
@<TRIPOS>SUBSTRUCTURE
     1 UIB         1 TEMP              0 ****  ****    0 ROOT
