@<TRIPOS>MOLECULE
UIC
   79    82     1     0     0
SMALL
bcc


@<TRIPOS>ATOM
      1 C11          0.0000     0.0000     0.0000 c3         1 UIC       0.209100
      2 C12          1.5490     0.0000     0.0000 c3         1 UIC      -0.028400
      3 O1           1.4390    -2.2430     2.1430 os         1 UIC      -0.403600
      4 C14          2.8250    -2.0290     2.4820 c3         1 UIC       0.209400
      5 C15          1.8950     0.0000     1.5070 c3         1 UIC      -0.078700
      6 C16         -0.3810    -0.9200     1.1770 c3         1 UIC      -0.062400
      7 C2           3.2260    -0.7520     1.7120 c3         1 UIC      -0.060400
      8 C1           0.8180    -0.9210     2.1440 c3         1 UIC       0.181100
      9 O13         -0.5080    -0.5360    -1.2490 os         1 UIC      -0.423900
     10 C21         -1.7070    -0.1380    -1.7150 c          1 UIC       0.680100
     11 C22         -3.4830    -0.2020    -3.3830 c3         1 UIC       0.014700
     12 C23         -3.3160     1.0940    -4.1760 c3         1 UIC       0.009900
     13 C24         -2.8610     2.1950    -3.2520 ca         1 UIC      -0.074300
     14 C25         -3.7940     2.9870    -2.6090 ca         1 UIC      -0.092000
     15 C26         -3.3780     3.9930    -1.7580 ca         1 UIC      -0.093000
     16 C27         -2.0270     4.2140    -1.5570 ca         1 UIC      -0.101000
     17 C28         -1.0950     3.4240    -2.2040 ca         1 UIC      -0.093000
     18 C29         -1.5110     2.4150    -3.0520 ca         1 UIC      -0.092000
     19 O21         -2.3630     0.6710    -1.0900 o          1 UIC      -0.651000
     20 N21         -2.1790    -0.6360    -2.8760 ns         1 UIC      -0.167900
     21 C31         -4.0630    -1.2870    -4.2930 c3         1 UIC       0.150100
     22 C32         -5.4770    -0.8900    -4.7220 c3         1 UIC       0.215800
     23 C33         -6.6680    -3.1290    -4.7880 c3         1 UIC       0.221800
     24 C34         -7.8680    -2.6600    -3.9610 c3         1 UIC      -0.082700
     25 C35         -8.9680    -2.1590    -4.8970 c3         1 UIC      -0.004100
     26 C36         -8.4000    -3.8270    -3.1270 c3         1 UIC      -0.004100
     27 O31         -3.2360    -1.4300    -5.4490 oh         1 UIC      -0.554800
     28 O32         -5.0430    -1.0460    -7.5080 o          1 UIC      -0.577800
     29 O33         -6.2290    -3.2750    -7.5730 o          1 UIC      -0.577800
     30 N31         -6.0800    -1.9850    -5.4870 n3         1 UIC      -0.525500
     31 S31         -6.0960    -1.9270    -7.1410 sy         1 UIC       1.048200
     32 C41         -7.5860    -1.1200    -7.6250 ca         1 UIC      -0.160500
     33 C42         -7.6080     0.2530    -7.7850 ca         1 UIC       0.000000
     34 C43         -8.7760     0.8860    -8.1660 ca         1 UIC      -0.112000
     35 C44         -9.9220     0.1460    -8.3870 ca         1 UIC      -0.053300
     36 C45         -9.9010    -1.2270    -8.2290 ca         1 UIC      -0.112000
     37 C46         -8.7310    -1.8610    -7.8520 ca         1 UIC       0.000000
     38 C3         -11.1960     0.8360    -8.8000 c3         1 UIC       0.276700
     39 O2         -11.2560     0.9120   -10.2260 oh         1 UIC      -0.583800
     40 H11         -0.3760     1.0020     0.1690 h1         1 UIC       0.043700
     41 H121         1.9300    -0.8930    -0.4790 hc         1 UIC       0.029700
     42 H122         1.9300     0.8940    -0.4790 hc         1 UIC       0.029700
     43 H141         2.9310    -1.8730     3.5490 h1         1 UIC       0.007200
     44 H142         3.4260    -2.8690     2.1560 h1         1 UIC       0.007200
     45 H15          1.9020     0.9940     1.9380 hc         1 UIC       0.041700
     46 H161        -0.5650    -1.9250     0.8160 hc         1 UIC       0.037700
     47 H162        -1.2600    -0.5340     1.6790 hc         1 UIC       0.037700
     48 H21          3.6650    -1.0100     0.7560 hc         1 UIC       0.024200
     49 H22A         3.9110    -0.1540     2.3020 hc         1 UIC       0.024200
     50 H1           0.5430    -0.5980     3.1410 h1         1 UIC       0.023700
     51 H22         -4.1550    -0.0320    -2.5510 h1         1 UIC       0.060700
     52 H231        -2.5770     0.9480    -4.9550 hc         1 UIC       0.036700
     53 H232        -4.2630     1.3680    -4.6250 hc         1 UIC       0.036700
     54 H25         -4.8520     2.8140    -2.7670 ha         1 UIC       0.099000
     55 H26         -4.1090     4.6130    -1.2530 ha         1 UIC       0.096000
     56 H27         -1.7000     5.0030    -0.8920 ha         1 UIC       0.097000
     57 H28         -0.0370     3.5970    -2.0470 ha         1 UIC       0.096000
     58 H29         -0.7800     1.7970    -3.5590 ha         1 UIC       0.099000
     59 HN21        -1.6530    -1.3270    -3.3730 hn         1 UIC       0.173500
     60 H31         -4.0990    -2.2280    -3.7560 h1         1 UIC       0.008700
     61 H321        -5.4310    -0.0010    -5.3380 h1         1 UIC       0.036200
     62 H322        -6.0780    -0.6900    -3.8430 h1         1 UIC       0.036200
     63 H331        -6.9950    -3.8660    -5.5120 h1         1 UIC       0.031700
     64 H332        -5.9280    -3.5710    -4.1320 h1         1 UIC       0.031700
     65 H34         -7.5600    -1.8570    -3.3020 hc         1 UIC       0.030700
     66 H351        -9.8790    -2.0000    -4.3320 hc         1 UIC       0.007533
     67 H352        -8.6580    -1.2260    -5.3520 hc         1 UIC       0.007533
     68 H353        -9.1480    -2.8960    -5.6710 hc         1 UIC       0.007533
     69 H361        -8.7200    -4.6250    -3.7870 hc         1 UIC       0.007533
     70 H362        -9.2400    -3.4920    -2.5310 hc         1 UIC       0.007533
     71 H363        -7.6160    -4.1920    -2.4740 hc         1 UIC       0.007533
     72 HO31        -2.7980    -2.2650    -5.4210 ho         1 UIC       0.385000
     73 H42         -6.7090     0.8330    -7.6120 ha         1 UIC       0.125000
     74 H43         -8.7930     1.9620    -8.2900 ha         1 UIC       0.112500
     75 H45        -10.7990    -1.8070    -8.4040 ha         1 UIC       0.112500
     76 H46         -8.7140    -2.9370    -7.7280 ha         1 UIC       0.125000
     77 H31A       -11.2160     1.8360    -8.3850 h1         1 UIC      -0.011300
     78 H32        -12.0470     0.2750    -8.4320 h1         1 UIC      -0.011300
     79 HO2        -12.0540     1.3440   -10.4850 ho         1 UIC       0.391000
@<TRIPOS>BOND
     1     1     2 1   
     2     1     6 1   
     3     1     9 1   
     4     1    40 1   
     5     2     5 1   
     6     2    41 1   
     7     2    42 1   
     8     3     4 1   
     9     3     8 1   
    10     4     7 1   
    11     4    43 1   
    12     4    44 1   
    13     5     7 1   
    14     5     8 1   
    15     5    45 1   
    16     6     8 1   
    17     6    46 1   
    18     6    47 1   
    19     7    48 1   
    20     7    49 1   
    21     8    50 1   
    22     9    10 1   
    23    10    19 2   
    24    10    20 1   
    25    11    12 1   
    26    11    20 1   
    27    11    21 1   
    28    11    51 1   
    29    12    13 1   
    30    12    52 1   
    31    12    53 1   
    32    13    14 ar  
    33    13    18 ar  
    34    14    15 ar  
    35    14    54 1   
    36    15    16 ar  
    37    15    55 1   
    38    16    17 ar  
    39    16    56 1   
    40    17    18 ar  
    41    17    57 1   
    42    18    58 1   
    43    20    59 1   
    44    21    22 1   
    45    21    27 1   
    46    21    60 1   
    47    22    30 1   
    48    22    61 1   
    49    22    62 1   
    50    23    24 1   
    51    23    30 1   
    52    23    63 1   
    53    23    64 1   
    54    24    25 1   
    55    24    26 1   
    56    24    65 1   
    57    25    66 1   
    58    25    67 1   
    59    25    68 1   
    60    26    69 1   
    61    26    70 1   
    62    26    71 1   
    63    27    72 1   
    64    28    31 2   
    65    29    31 2   
    66    30    31 1   
    67    31    32 1   
    68    32    33 ar  
    69    32    37 ar  
    70    33    34 ar  
    71    33    73 1   
    72    34    35 ar  
    73    34    74 1   
    74    35    36 ar  
    75    35    38 1   
    76    36    37 ar  
    77    36    75 1   
    78    37    76 1   
    79    38    39 1   
    80    38    77 1   
    81    38    78 1   
    82    39    79 1   
@<TRIPOS>SUBSTRUCTURE
     1 UIC         1 TEMP              0 ****  ****    0 ROOT
