@<TRIPOS>MOLECULE
UIH
   38    41     1     0     0
SMALL
bcc


@<TRIPOS>ATOM
      1 N1           0.0000     0.0000     0.0000 nb         1 UIH      -0.670000
      2 C2           1.3270     0.0000     0.0000 ca         1 UIH       0.727900
      3 N3           2.0380     0.0000     1.1150 nb         1 UIH      -0.635000
      4 C4           1.4370    -0.0000     2.3050 ca         1 UIH       0.261800
      5 C5           0.0300     0.0000     2.3480 ca         1 UIH      -0.344400
      6 C6          -0.6840     0.0000     1.1410 ca         1 UIH       0.597200
      7 NAA          1.9920     0.0000    -1.2140 nv         1 UIH      -0.638500
      8 NAB         -2.0660     0.0000     1.1360 nv         1 UIH      -0.650500
      9 CAD         -4.2790    -0.0020     5.3660 ca         1 UIH      -0.104000
     10 CAE         -3.8320    -1.0890     4.6360 ca         1 UIH      -0.102500
     11 CAF         -3.4500     1.0850     5.5770 ca         1 UIH      -0.102500
     12 CAG          1.9590     0.8500     7.9590 ca         1 UIH      -0.079000
     13 CAH          0.2650    -0.8470     8.0900 ca         1 UIH      -0.079000
     14 CAI         -2.5540    -1.0940     4.1140 ca         1 UIH      -0.094500
     15 CAJ         -2.1710     1.0920     5.0610 ca         1 UIH      -0.094500
     16 CAK          1.8580     0.8540     6.5840 ca         1 UIH      -0.087500
     17 CAL          0.1540    -0.8540     6.7160 ca         1 UIH      -0.087500
     18 NAO          1.8960    -0.0000     3.5950 na         1 UIH       0.283900
     19 CAP          1.1660     0.0010     8.7110 ca         1 UIH       0.036100
     20 CAS          0.9520    -0.0000     5.9500 ca         1 UIH      -0.016800
     21 CAT         -1.7140    -0.0000     4.3240 ca         1 UIH      -0.007800
     22 CAU          0.8390    -0.0010     4.4790 cc         1 UIH      -0.192300
     23 CAV         -0.3420    -0.0000     3.7670 cd         1 UIH      -0.033400
     24 HNAA         2.2210    -0.8670    -1.6600 hn         1 UIH       0.277800
     25 HNAB         2.2460     0.8670    -1.6460 hn         1 UIH       0.277800
     26 HNAC        -2.5660    -0.8540     0.9860 hn         1 UIH       0.281300
     27 HNAD        -2.5660     0.8630     1.2280 hn         1 UIH       0.281300
     28 HAD         -5.2820    -0.0020     5.7740 ha         1 UIH       0.102000
     29 HAE         -4.4850    -1.9370     4.4740 ha         1 UIH       0.103000
     30 HAF         -3.8070     1.9330     6.1500 ha         1 UIH       0.103000
     31 HAG          2.6610     1.5120     8.4510 ha         1 UIH       0.118500
     32 HAH         -0.3530    -1.5090     8.6850 ha         1 UIH       0.118500
     33 HAI         -2.2050    -1.9450     3.5430 ha         1 UIH       0.109500
     34 HAJ         -1.5230     1.9440     5.2270 ha         1 UIH       0.109500
     35 HAK          2.4800     1.5180     5.9960 ha         1 UIH       0.116000
     36 HAL         -0.5500    -1.5180     6.2310 ha         1 UIH       0.116000
     37 HNAO         2.8620    -0.0000     3.8580 hn         1 UIH       0.122700
     38 Br           1.3110     0.0030    10.5980 br         1 UIH      -0.127100
@<TRIPOS>BOND
     1     1     2 ar  
     2     1     6 ar  
     3     2     3 ar  
     4     2     7 1   
     5     3     4 ar  
     6     4     5 ar  
     7     4    18 1   
     8     5     6 ar  
     9     5    23 1   
    10     6     8 1   
    11     7    24 1   
    12     7    25 1   
    13     8    26 1   
    14     8    27 1   
    15     9    10 ar  
    16     9    11 ar  
    17     9    28 1   
    18    10    14 ar  
    19    10    29 1   
    20    11    15 ar  
    21    11    30 1   
    22    12    16 ar  
    23    12    19 ar  
    24    12    31 1   
    25    13    17 ar  
    26    13    19 ar  
    27    13    32 1   
    28    14    21 ar  
    29    14    33 1   
    30    15    21 ar  
    31    15    34 1   
    32    16    20 ar  
    33    16    35 1   
    34    17    20 ar  
    35    17    36 1   
    36    18    22 1   
    37    18    37 1   
    38    19    38 1   
    39    20    22 1   
    40    21    23 1   
    41    22    23 2   
@<TRIPOS>SUBSTRUCTURE
     1 UIH         1 TEMP              0 ****  ****    0 ROOT
