@<TRIPOS>MOLECULE
UIN
   47    49     1     0     0
SMALL
bcc


@<TRIPOS>ATOM
      1 CA          0.1260   -0.0010   -0.0910 cc        1 UIN     -0.255400
      2 CA2         1.5700    0.1010   -0.1150 c         1 UIN      0.738800
      3 OA2         2.3710    0.1460   -1.0500 o         1 UIN     -0.583500
      4 OA3         2.2720    0.1950    1.0980 os        1 UIN     -0.330200
      5 CA4         1.6010    0.1150    2.2860 cc        1 UIN      0.175900
      6 CA5         0.2450   -0.0490    2.3650 cd        1 UIN     -0.255200
      7 CA6        -0.5070   -0.0590    1.1290 cd        1 UIN      0.218100
      8 OA6        -1.8760   -0.1230    1.1310 oh        1 UIN     -0.483100
      9 CB1        -0.6570   -1.4130   -1.9660 ca        1 UIN     -0.074300
     10 CB2        -1.8560   -2.1370   -1.9860 ca        1 UIN     -0.123000
     11 CB3        -1.8980   -3.4180   -2.5350 ca        1 UIN     -0.134000
     12 CB4        -0.7430   -3.9890   -3.0690 ca        1 UIN     -0.133000
     13 CB5         0.4550   -3.2750   -3.0480 ca        1 UIN     -0.134000
     14 CB6         0.5000   -1.9940   -2.4990 ca        1 UIN     -0.123000
     15 CG1        -0.6410   -0.0320   -1.3770 c3        1 UIN      0.051800
     16 CG2        -0.1180    1.0080   -2.3650 c3        1 UIN     -0.079400
     17 CG3        -1.1070    1.2740   -3.4710 c3        1 UIN     -0.092100
     18 CD1         2.5360    0.2360    3.4430 c3        1 UIN     -0.047200
     19 CD2         2.6550    1.6630    3.9460 c3        1 UIN     -0.072400
     20 CD3         1.3390    2.3910    4.1170 c3        1 UIN     -0.082400
     21 CD4         0.3710    1.7140    5.0670 c3        1 UIN     -0.075400
     22 CD5        -0.8000    1.0500    4.3710 c3        1 UIN     -0.079400
     23 CD6        -0.4380   -0.2460    3.6700 c3        1 UIN     -0.025200
     24 HO6        -2.1950    0.0950    2.0210 ho        1 UIN      0.431000
     25 HB2        -2.7690   -1.6950   -1.5610 ha        1 UIN      0.143000
     26 HB3        -2.8440   -3.9770   -2.5470 ha        1 UIN      0.128500
     27 HB4        -0.7770   -4.9980   -3.5030 ha        1 UIN      0.127000
     28 HB5         1.3690   -3.7220   -3.4650 ha        1 UIN      0.128500
     29 HB6         1.4510   -1.4370   -2.4780 ha        1 UIN      0.143000
     30 HG1        -1.7100    0.2530   -1.1300 hc        1 UIN      0.070700
     31 HG21        0.8580    0.6620   -2.7990 hc        1 UIN      0.054200
     32 HG22        0.0870    1.9610   -1.8090 hc        1 UIN      0.054200
     33 HG31       -0.6810    2.0070   -4.1980 hc        1 UIN      0.034367
     34 HG32       -2.0580    1.6960   -3.0620 hc        1 UIN      0.034367
     35 HG33       -1.3480    0.3310   -4.0180 hc        1 UIN      0.034367
     36 HD11        2.1790   -0.4340    4.2700 hc        1 UIN      0.071700
     37 HD12        3.5550   -0.1230    3.1300 hc        1 UIN      0.071700
     38 HD21        3.2890    2.2460    3.2240 hc        1 UIN      0.051700
     39 HD22        3.2000    1.6370    4.9270 hc        1 UIN      0.051700
     40 HD31        1.5680    3.4210    4.5040 hc        1 UIN      0.047200
     41 HD32        0.8580    2.5230    3.1120 hc        1 UIN      0.047200
     42 HD41        0.9120    0.9570    5.6950 hc        1 UIN      0.042700
     43 HD42       -0.0410    2.4850    5.7730 hc        1 UIN      0.042700
     44 HD51       -1.2570    1.7630    3.6350 hc        1 UIN      0.043200
     45 HD52       -1.5840    0.8210    5.1440 hc        1 UIN      0.043200
     46 HD61        0.2140   -0.8630    4.3480 hc        1 UIN      0.051200
     47 HD62       -1.3720   -0.8560    3.5180 hc        1 UIN      0.051200
@<TRIPOS>BOND
     1    1    2 1   
     2    1    7 2   
     3    1   15 1   
     4    2    3 2   
     5    2    4 1   
     6    4    5 1   
     7    5    6 2   
     8    5   18 1   
     9    6    7 1   
    10    6   23 1   
    11    7    8 1   
    12    8   24 1   
    13    9   10 ar  
    14    9   14 ar  
    15    9   15 1   
    16   10   11 ar  
    17   10   25 1   
    18   11   12 ar  
    19   11   26 1   
    20   12   13 ar  
    21   12   27 1   
    22   13   14 ar  
    23   13   28 1   
    24   14   29 1   
    25   15   16 1   
    26   15   30 1   
    27   16   17 1   
    28   16   31 1   
    29   16   32 1   
    30   17   33 1   
    31   17   34 1   
    32   17   35 1   
    33   18   19 1   
    34   18   36 1   
    35   18   37 1   
    36   19   20 1   
    37   19   38 1   
    38   19   39 1   
    39   20   21 1   
    40   20   40 1   
    41   20   41 1   
    42   21   22 1   
    43   21   42 1   
    44   21   43 1   
    45   22   23 1   
    46   22   44 1   
    47   22   45 1   
    48   23   46 1   
    49   23   47 1   
@<TRIPOS>SUBSTRUCTURE
     1 UIN         1 TEMP              0 ****  ****    0 ROOT
