@<TRIPOS>MOLECULE
UIP
   64    69     1     0     0
SMALL
bcc


@<TRIPOS>ATOM
      1 N1           0.0000     0.0000     0.0000 n2         1 UIP      -0.472100
      2 C3           1.3020     0.0000     0.0000 ce         1 UIP       0.243800
      3 N2           1.9910     0.0000     1.1930 nz         1 UIP       0.119400
      4 C4           2.0430    -0.0010    -1.2820 ca         1 UIP      -0.208900
      5 C9           1.3490    -0.0020    -2.4910 ca         1 UIP      -0.054000
      6 C8           2.0440    -0.0030    -3.6830 ca         1 UIP      -0.059000
      7 C7           3.4270    -0.0020    -3.6800 ca         1 UIP       0.005700
      8 C6           4.1210    -0.0070    -2.4840 ca         1 UIP      -0.059000
      9 C5           3.4370    -0.0010    -1.2860 ca         1 UIP      -0.054000
     10 C10          4.1800    -0.0020    -4.9840 c3         1 UIP       0.176800
     11 N11          3.4050     0.7180    -6.0050 n3         1 UIP      -0.532600
     12 C12          4.3430     1.7690    -6.5460 c3         1 UIP       0.140800
     13 C13          3.8500     1.9980    -7.9950 c3         1 UIP      -0.025400
     14 C14          3.4350     0.5790    -8.4470 c3         1 UIP      -0.032400
     15 C15          3.1430    -0.1840    -7.1460 c3         1 UIP       0.125500
     16 C16          4.1020    -1.3740    -7.0090 c3         1 UIP      -0.075700
     17 C17          3.3190    -2.6820    -7.2450 c3         1 UIP       0.025700
     18 N19          2.7200    -3.0270    -5.9500 n          1 UIP      -0.152800
     19 C20          3.3240    -2.3610    -4.9290 c          1 UIP       0.649500
     20 O21          3.0360    -2.4530    -3.7550 o          1 UIP      -0.684500
     21 C22          4.4030    -1.4600    -5.4850 c3         1 UIP      -0.143700
     22 C23          1.6190    -3.9790    -5.7800 c3         1 UIP       0.119300
     23 C24          0.3130    -3.2310    -5.7220 ca         1 UIP      -0.132300
     24 C32         -0.3900    -2.9800    -6.8860 ca         1 UIP      -0.086000
     25 C31         -1.5890    -2.2950    -6.8380 ca         1 UIP      -0.084000
     26 C30         -2.0900    -1.8570    -5.6240 ca         1 UIP       0.070100
     27 O29         -3.2270    -1.1720    -5.3080 os         1 UIP      -0.303900
     28 C28         -3.0070    -0.6520    -3.9830 c3         1 UIP       0.432200
     29 O27         -2.0740    -1.5820    -3.4010 os         1 UIP      -0.323900
     30 C26         -1.3810    -2.1090    -4.4510 ca         1 UIP       0.042100
     31 C25         -0.1820    -2.8010    -4.5070 ca         1 UIP      -0.073000
     32 C18          4.2690    -3.7920    -7.7010 c3         1 UIP      -0.045400
     33 C42          3.4590    -5.0370    -8.0690 c3         1 UIP      -0.004100
     34 HN1         -0.5010     0.0000     0.8660 hn         1 UIP       0.331400
     35 HN21         2.5540     0.8250     1.2540 hn         1 UIP       0.225467
     36 HN22         2.5790    -0.8090     1.2400 hn         1 UIP       0.225467
     37 H9           0.2680     0.0740    -2.4940 ha         1 UIP       0.100000
     38 H8           1.5050     0.0450    -4.6220 ha         1 UIP       0.127000
     39 H6           5.2050    -0.0080    -2.4880 ha         1 UIP       0.127000
     40 H5           3.9810     0.0730    -0.3520 ha         1 UIP       0.100000
     41 H10          5.1400     0.4830    -4.8530 h1         1 UIP       0.044700
     42 H121         5.3620     1.4020    -6.5470 h1         1 UIP       0.020700
     43 H122         4.2610     2.6820    -5.9690 h1         1 UIP       0.020700
     44 H131         2.9980     2.6670    -8.0060 hc         1 UIP       0.029200
     45 H132         4.6530     2.3770    -8.6150 hc         1 UIP       0.029200
     46 H141         4.2460     0.1050    -8.9860 hc         1 UIP       0.027700
     47 H142         2.5430     0.6280    -9.0610 hc         1 UIP       0.027700
     48 H15          2.1140    -0.5240    -7.1290 h1         1 UIP       0.052700
     49 H16          4.9940    -1.2870    -7.6170 hc         1 UIP       0.068700
     50 H17          2.5420    -2.5220    -7.9830 h1         1 UIP       0.048700
     51 H22          5.4020    -1.8250    -5.2800 hc         1 UIP       0.068700
     52 H231         1.6040    -4.6670    -6.6160 h1         1 UIP       0.043200
     53 H232         1.7600    -4.5320    -4.8590 h1         1 UIP       0.043200
     54 H32         -0.0160    -3.3490    -7.8340 ha         1 UIP       0.112000
     55 H31         -2.1380    -2.1000    -7.7520 ha         1 UIP       0.120000
     56 H281        -3.9350    -0.6640    -3.4250 h2         1 UIP       0.015200
     57 H282        -2.5560     0.3310    -4.0450 h2         1 UIP       0.015200
     58 H25          0.3400    -3.0510    -3.5910 ha         1 UIP       0.125000
     59 H181         4.8280    -3.4560    -8.5660 hc         1 UIP       0.026200
     60 H182         4.9550    -4.0320    -6.8980 hc         1 UIP       0.026200
     61 H421         3.2870    -5.6320    -7.1800 hc         1 UIP       0.010367
     62 H422         2.5080    -4.7380    -8.4920 hc         1 UIP       0.010367
     63 H423         4.0080    -5.6240    -8.7950 hc         1 UIP       0.010367
     64 H23          1.3410    -0.0170     1.9540 hn         1 UIP       0.225467
@<TRIPOS>BOND
     1     1     2 2
     2     1    34 1
     3     2     3 1
     4     2     4 1
     5     3    35 1
     6     3    36 1
     7     3    64 1
     8     4     5 ar
     9     4     9 ar
    10     5     6 ar
    11     5    37 1
    12     6     7 ar
    13     6    38 1
    14     7     8 ar
    15     7    10 1
    16     8     9 ar
    17     8    39 1
    18     9    40 1
    19    10    11 1
    20    10    21 1
    21    10    41 1
    22    11    12 1
    23    11    15 1
    24    12    13 1
    25    12    42 1
    26    12    43 1
    27    13    14 1
    28    13    44 1
    29    13    45 1
    30    14    15 1
    31    14    46 1
    32    14    47 1
    33    15    16 1
    34    15    48 1
    35    16    17 1
    36    16    21 1
    37    16    49 1
    38    17    18 1
    39    17    32 1
    40    17    50 1
    41    18    19 1
    42    18    22 1
    43    19    20 2
    44    19    21 1
    45    21    51 1
    46    22    23 1
    47    22    52 1
    48    22    53 1
    49    23    24 ar
    50    23    31 ar
    51    24    25 ar
    52    24    54 1
    53    25    26 ar
    54    25    55 1
    55    26    27 1
    56    26    30 ar
    57    27    28 1
    58    28    29 1
    59    28    56 1
    60    28    57 1
    61    29    30 1
    62    30    31 ar
    63    31    58 1
    64    32    33 1
    65    32    59 1
    66    32    60 1
    67    33    61 1
    68    33    62 1
    69    33    63 1
@<TRIPOS>SUBSTRUCTURE
     1 UIP         1 TEMP              0 ****  ****    0 ROOT
