@<TRIPOS>MOLECULE
molecule
   67    72     1     0     0
SMALL
bcc


@<TRIPOS>ATOM
      1 N1           0.0000     0.0000     0.0000 n2         1 UIQ      -0.744100
      2 C3           1.3030     0.0000     0.0000 ce         1 UIQ       0.528800
      3 N2           1.9910     0.0000     1.1930 nz         1 UIQ      -0.741600
      4 C4           2.0420     0.0010    -1.2830 ca         1 UIQ      -0.244900
      5 C9           1.3480     0.0010    -2.4920 ca         1 UIQ      -0.095500
      6 C8           2.0440     0.0020    -3.6840 ca         1 UIQ      -0.075500
      7 C7           3.4260     0.0020    -3.6810 ca         1 UIQ       0.008700
      8 C6           4.1210    -0.0030    -2.4850 ca         1 UIQ      -0.075500
      9 C5           3.4370     0.0020    -1.2860 ca         1 UIQ      -0.095500
     10 C10          4.1800     0.0030    -4.9860 c3         1 UIQ       0.186800
     11 N11          5.3660    -0.8590    -4.8750 n3         1 UIQ      -0.667600
     12 C12          5.2560    -1.8330    -6.0220 c3         1 UIQ       0.124800
     13 C13          6.7250    -2.2040    -6.3390 c3         1 UIQ      -0.085400
     14 C14          7.4730    -0.8700    -6.1170 c3         1 UIQ      -0.088400
     15 C15          6.5770    -0.0620    -5.1650 c3         1 UIQ       0.142500
     16 C16          6.1120     1.2310    -5.8500 c3         1 UIQ      -0.100700
     17 C17          6.8450     2.4300    -5.2110 c3         1 UIQ       0.113700
     18 N19          6.0610     2.7870    -4.0230 n          1 UIQ      -0.487800
     19 C20          4.8090     2.2550    -4.0730 c          1 UIQ       0.715500
     20 O21          3.9490     2.3880    -3.2290 o          1 UIQ      -0.637500
     21 C22          4.6580     1.4430    -5.3380 c3         1 UIQ      -0.169700
     22 C23          6.5600     3.6230    -2.9280 c3         1 UIQ       0.174300
     23 C24          7.3170     2.7660    -1.9470 ca         1 UIQ      -0.104300
     24 C32          8.6760     2.5700    -2.1080 ca         1 UIQ      -0.115000
     25 C31          9.3760     1.7850    -1.2100 ca         1 UIQ      -0.099000
     26 C30          8.7160     1.1940    -0.1460 ca         1 UIQ       0.056100
     27 O29          9.1620     0.3890     0.8630 os         1 UIQ      -0.311900
     28 C28          7.9840    -0.2340     1.4080 c3         1 UIQ       0.332200
     29 O27          6.9350     0.7120     1.1270 os         1 UIQ      -0.351900
     30 C26          7.3460     1.3920     0.0170 ca         1 UIQ       0.031100
     31 C25          6.6530     2.1840    -0.8840 ca         1 UIQ      -0.122000
     32 C18          6.8870     3.6060    -6.1890 c3         1 UIQ      -0.091700
     33 C41          7.7430     3.2300    -7.4000 c3         1 UIQ      -0.091600
     34 C42          5.4660     3.9370    -6.6500 c3         1 UIQ      -0.091600
     35 HN1         -0.5030     0.0000    -0.8650 hn         1 UIQ       0.481400
     36 HN21         2.5840    -0.8050     1.2360 hn         1 UIQ       0.471800
     37 HN22         2.5480     0.8290     1.2560 hn         1 UIQ       0.471800
     38 H9           0.2650     0.0010    -2.4960 ha         1 UIQ       0.119500
     39 H8           1.5050     0.0040    -4.6240 ha         1 UIQ       0.160000
     40 H6           5.2050    -0.0030    -2.4890 ha         1 UIQ       0.160000
     41 H5           3.9820    -0.0030    -0.3500 ha         1 UIQ       0.119500
     42 H10          3.5400    -0.3660    -5.7780 h1         1 UIQ       0.071700
     43 H121         4.7000    -2.7120    -5.7200 h1         1 UIQ       0.052700
     44 H122         4.7930    -1.3580    -6.8780 h1         1 UIQ       0.052700
     45 H131         6.8230    -2.5300    -7.3670 hc         1 UIQ       0.061200
     46 H132         7.0830    -2.9610    -5.6520 hc         1 UIQ       0.061200
     47 H141         8.4380    -1.0530    -5.6600 hc         1 UIQ       0.056700
     48 H142         7.5890    -0.3450    -7.0580 hc         1 UIQ       0.056700
     49 H15          7.1080     0.1650    -4.2480 h1         1 UIQ       0.082700
     50 H16          6.1860     1.2030    -6.9300 hc         1 UIQ       0.095700
     51 H17          7.8480     2.1410    -4.9210 h1         1 UIQ       0.068700
     52 H22          4.0260     1.9260    -6.0740 hc         1 UIQ       0.106700
     53 H231         7.2190     4.3850    -3.3260 h1         1 UIQ       0.071200
     54 H232         5.7250     4.0960    -2.4250 h1         1 UIQ       0.071200
     55 H32          9.1890     3.0110    -2.9540 ha         1 UIQ       0.146000
     56 H31         10.4410     1.6350    -1.3370 ha         1 UIQ       0.157000
     57 H281         8.0940    -0.3540     2.4790 h2         1 UIQ       0.074700
     58 H282         7.7880    -1.1650     0.8910 h2         1 UIQ       0.074700
     59 H25          5.9870     2.8000    -0.2910 ha         1 UIQ       0.148000
     60 H18          7.3180     4.4700    -5.6970 hc         1 UIQ       0.061700
     61 H411         7.1410     2.6760    -8.1100 hc         1 UIQ       0.040700
     62 H412         8.1180     4.1310    -7.8710 hc         1 UIQ       0.040700
     63 H413         8.5770     2.6180    -7.0770 hc         1 UIQ       0.040700
     64 H421         4.8310     4.0860    -5.7850 hc         1 UIQ       0.040700
     65 H422         5.4820     4.8410    -7.2470 hc         1 UIQ       0.040700
     66 H423         5.0800     3.1180    -7.2450 hc         1 UIQ       0.040700
     67 H23          1.3400    -0.0150     1.9530 hn         1 UIQ       0.471800
@<TRIPOS>BOND
     1     1     2 2
     2     1    35 1
     3     2     3 1
     4     2     4 1
     5     3    36 1
     6     3    37 1
     7     4     5 ar
     8     4     9 ar
     9     5     6 ar
    10     5    38 1
    11     6     7 ar
    12     6    39 1
    13     7     8 ar
    14     7    10 1
    15     8     9 ar
    16     8    40 1
    17     9    41 1
    18    10    11 1
    19    10    21 1
    20    10    42 1
    21    11    12 1
    22    11    15 1
    23    12    13 1
    24    12    43 1
    25    12    44 1
    26    13    14 1
    27    13    45 1
    28    13    46 1
    29    14    15 1
    30    14    47 1
    31    14    48 1
    32    15    16 1
    33    15    49 1
    34    16    17 1
    35    16    21 1
    36    16    50 1
    37    17    18 1
    38    17    32 1
    39    17    51 1
    40    18    19 1
    41    18    22 1
    42    19    20 2
    43    19    21 1
    44    21    52 1
    45    22    23 1
    46    22    53 1
    47    22    54 1
    48    23    24 ar
    49    23    31 ar
    50    24    25 ar
    51    24    55 1
    52    25    26 ar
    53    25    56 1
    54    26    27 1
    55    26    30 ar
    56    27    28 1
    57    28    29 1
    58    28    57 1
    59    28    58 1
    60    29    30 1
    61    30    31 ar
    62    31    59 1
    63    32    33 1
    64    32    34 1
    65    32    60 1
    66    33    61 1
    67    33    62 1
    68    33    63 1
    69    34    64 1
    70    34    65 1
    71    34    66 1
    72    67     3 1
@<TRIPOS>SUBSTRUCTURE
     1 UIQ         1 TEMP              0 ****  ****    0 ROOT
