@<TRIPOS>MOLECULE
UIQ
   67    72     1     0     0
SMALL
bcc


@<TRIPOS>ATOM
      1 N1          1.3920   -1.3850    0.8320 n2        1 UIQ     -0.681100
      2 C3          2.2860   -0.6450    0.3270 ce        1 UIQ      0.634800
      3 N2          3.0830    0.4270    1.0740 n4        1 UIQ     -0.890600
      4 C4          2.7240   -0.6550   -1.0860 ca        1 UIQ     -0.219900
      5 C9          1.8180   -0.2990   -2.0910 ca        1 UIQ     -0.088000
      6 C8          2.2700   -0.1860   -3.4040 ca        1 UIQ     -0.096500
      7 C7          3.6170   -0.4150   -3.7160 ca        1 UIQ     -0.014300
      8 C6          4.4920   -0.8610   -2.7150 ca        1 UIQ     -0.096500
      9 C5          4.0490   -0.9810   -1.4020 ca        1 UIQ     -0.088000
     10 C10         4.0790   -0.1510   -5.1270 c3        1 UIQ      0.223800
     11 N11         5.2110   -1.0080   -5.5170 n3        1 UIQ     -0.710600
     12 C12         4.8870   -2.0800   -6.4590 c3        1 UIQ      0.151800
     13 C13         5.6430   -1.8560   -7.7790 c3        1 UIQ     -0.099400
     14 C14         6.5390   -0.6450   -7.5590 c3        1 UIQ     -0.093400
     15 C15         6.2770   -0.1710   -6.1150 c3        1 UIQ      0.165500
     16 C16         5.8690    1.3090   -6.0270 c3        1 UIQ     -0.084700
     17 C17         6.8160    2.1580   -5.1300 c3        1 UIQ      0.115700
     18 N19         5.9870    2.6480   -4.0310 n         1 UIQ     -0.473800
     19 C20         4.6790    2.1830   -4.0890 c         1 UIQ      0.712500
     20 O21         3.8080    2.4750   -3.2500 o         1 UIQ     -0.660500
     21 C22         4.4850    1.3310   -5.3390 c3        1 UIQ     -0.145700
     22 C23         6.4540    3.5630   -3.0310 c3        1 UIQ      0.151300
     23 C24         6.9420    2.9290   -1.7540 ca        1 UIQ     -0.104300
     24 C32         8.3060    2.9000   -1.4620 ca        1 UIQ     -0.101000
     25 C31         8.7990    2.3830   -0.2510 ca        1 UIQ     -0.101000
     26 C30         7.8560    1.8980    0.6330 ca        1 UIQ      0.076100
     27 O29         8.0530    1.3460    1.8950 os        1 UIQ     -0.311900
     28 C28         6.7520    1.0330    2.4280 c3        1 UIQ      0.328200
     29 O27         5.7680    1.3560    1.4100 os        1 UIQ     -0.427900
     30 C26         6.4710    1.9120    0.3330 ca        1 UIQ      0.015100
     31 C25         5.9820    2.4230   -0.8500 ca        1 UIQ     -0.098000
     32 C18         7.5600    3.2510   -5.9260 c3        1 UIQ     -0.078700
     33 C41         8.4370    2.6070   -6.9800 c3        1 UIQ     -0.094600
     34 C42         6.6460    4.2860   -6.5400 c3        1 UIQ     -0.094600
     35 HN1         1.1030   -1.3290    1.7840 hn        1 UIQ      0.452400
     36 HN21        4.0840    0.1810    1.0360 hn        1 UIQ      0.461133
     37 HN22        2.8040    0.5400    2.0480 hn        1 UIQ      0.461133
     38 H9          0.7620   -0.1000   -1.8510 ha        1 UIQ      0.143500
     39 H8          1.5620    0.1160   -4.1930 ha        1 UIQ      0.165500
     40 H6          5.5380   -1.1110   -2.9580 ha        1 UIQ      0.165500
     41 H5          4.7420   -1.3400   -0.6260 ha        1 UIQ      0.143500
     42 H10         3.1850   -0.3430   -5.8010 h1        1 UIQ      0.061700
     43 H121        5.2280   -3.0380   -5.9760 h1        1 UIQ      0.056200
     44 H122        3.7830   -2.1700   -6.6480 h1        1 UIQ      0.056200
     45 H131        4.9250   -1.6750   -8.6160 hc        1 UIQ      0.059200
     46 H132        6.2450   -2.7610   -8.0380 hc        1 UIQ      0.059200
     47 H141        6.3130    0.1590   -8.3020 hc        1 UIQ      0.057200
     48 H142        7.6170   -0.9170   -7.6770 hc        1 UIQ      0.057200
     49 H15         7.2000   -0.3600   -5.4970 h1        1 UIQ      0.075700
     50 H16         5.8040    1.7640   -7.0470 hc        1 UIQ      0.088700
     51 H17         7.6140    1.4920   -4.6820 h1        1 UIQ      0.059700
     52 H22         3.7130    1.8380   -5.9740 hc        1 UIQ      0.098700
     53 H231        7.2820    4.1920   -3.4690 h1        1 UIQ      0.073200
     54 H232        5.5950    4.2510   -2.7650 h1        1 UIQ      0.073200
     55 H32         9.0280    3.3010   -2.1920 ha        1 UIQ      0.151000
     56 H31         9.8730    2.3710   -0.0210 ha        1 UIQ      0.173000
     57 H281        6.7040   -0.0660    2.6280 h2        1 UIQ      0.077200
     58 H282        6.5620    1.6770    3.3220 h2        1 UIQ      0.077200
     59 H25         4.9130    2.4520   -1.1050 ha        1 UIQ      0.164000
     60 H18         8.2470    3.7840   -5.2040 hc        1 UIQ      0.050700
     61 H411        9.1570    1.8950   -6.5090 hc        1 UIQ      0.042700
     62 H412        9.0180    3.3940   -7.5190 hc        1 UIQ      0.042700
     63 H413        7.8270    2.0470   -7.7290 hc        1 UIQ      0.042700
     64 H421        5.9360    3.8250   -7.2680 hc        1 UIQ      0.042700
     65 H422        7.2540    5.0490   -7.0870 hc        1 UIQ      0.042700
     66 H423        6.0540    4.8110   -5.7520 hc        1 UIQ      0.042700
     67 H23         2.9700    1.3220    0.5850 hn        1 UIQ      0.461133
@<TRIPOS>BOND
     1    1    2 2   
     2    1   35 1   
     3    2    3 1   
     4    2    4 1   
     5    3   36 1   
     6    3   37 1   
     7    3   67 1   
     8    4    5 ar  
     9    4    9 ar  
    10    5    6 ar  
    11    5   38 1   
    12    6    7 ar  
    13    6   39 1   
    14    7    8 ar  
    15    7   10 1   
    16    8    9 ar  
    17    8   40 1   
    18    9   41 1   
    19   10   11 1   
    20   10   21 1   
    21   10   42 1   
    22   11   12 1   
    23   11   15 1   
    24   12   13 1   
    25   12   43 1   
    26   12   44 1   
    27   13   14 1   
    28   13   45 1   
    29   13   46 1   
    30   14   15 1   
    31   14   47 1   
    32   14   48 1   
    33   15   16 1   
    34   15   49 1   
    35   16   17 1   
    36   16   21 1   
    37   16   50 1   
    38   17   18 1   
    39   17   32 1   
    40   17   51 1   
    41   18   19 1   
    42   18   22 1   
    43   19   20 2   
    44   19   21 1   
    45   21   52 1   
    46   22   23 1   
    47   22   53 1   
    48   22   54 1   
    49   23   24 ar  
    50   23   31 ar  
    51   24   25 ar  
    52   24   55 1   
    53   25   26 ar  
    54   25   56 1   
    55   26   27 1   
    56   26   30 ar  
    57   27   28 1   
    58   28   29 1   
    59   28   57 1   
    60   28   58 1   
    61   29   30 1   
    62   30   31 ar  
    63   31   59 1   
    64   32   33 1   
    65   32   34 1   
    66   32   60 1   
    67   33   61 1   
    68   33   62 1   
    69   33   63 1   
    70   34   64 1   
    71   34   65 1   
    72   34   66 1   
@<TRIPOS>SUBSTRUCTURE
     1 UIQ         1 TEMP              0 ****  ****    0 ROOT
