@<TRIPOS>MOLECULE
UIR
   65    71     1     0     0
SMALL
bcc


@<TRIPOS>ATOM
      1 N1           0.0000     0.0000     0.0000 nz         1 UIR       0.148400
      2 C3           1.3340     0.0000     0.0000 ce         1 UIR       0.235800
      3 C4           2.1220     0.0000     1.1990 ca         1 UIR      -0.199900
      4 C9           1.5520     0.2540     2.4620 ca         1 UIR      -0.051000
      5 C8           2.3490     0.2680     3.6300 ca         1 UIR      -0.064000
      6 C7           3.7300     0.0220     3.5410 ca         1 UIR      -0.004300
      7 C10          4.6540     0.1030     4.7400 c3         1 UIR       0.182800
      8 N11          3.8650    -0.3910     5.9250 n3         1 UIR      -0.561600
      9 C12          3.6420    -1.8730     5.8500 c3         1 UIR       0.161800
     10 C13          4.7810    -2.4940     6.6870 c3         1 UIR      -0.050400
     11 C14          5.6230    -1.3820     7.2790 c3         1 UIR      -0.048400
     12 C15          4.8080    -0.0920     7.0750 c3         1 UIR       0.134500
     13 C16          5.7780     1.0440     6.6060 c3         1 UIR      -0.055700
     14 C18          6.5970     3.3710     7.6530 cx         1 UIR      -0.149700
     15 C17          5.5020     2.3380     7.4640 c3         1 UIR       0.081700
     16 C42          6.5670     4.1050     9.0000 cx         1 UIR      -0.065900
     17 C41          7.6270     2.9990     8.7510 cx         1 UIR      -0.065900
     18 N19          4.3290     2.9130     6.8680 n          1 UIR      -0.160800
     19 C20          4.1070     2.4770     5.5770 c          1 UIR       0.636500
     20 O21          3.0730     2.7860     4.8840 o          1 UIR      -0.702500
     21 C22          5.2050     1.4590     5.2080 c3         1 UIR      -0.103700
     22 C23          3.2700     3.8720     7.4090 c3         1 UIR       0.164300
     23 C24          3.3210     5.2490     6.7370 ca         1 UIR      -0.126300
     24 C25          4.5120     5.9910     6.7740 ca         1 UIR      -0.071000
     25 C26          4.4970     7.3430     6.2210 ca         1 UIR       0.014100
     26 O27          5.2440     8.4410     6.7060 os         1 UIR      -0.308900
     27 C28          4.9470     9.4370     5.6660 c3         1 UIR       0.418200
     28 O29          3.6540     9.0860     5.0640 os         1 UIR      -0.313900
     29 C30          3.3140     7.8830     5.6580 ca         1 UIR       0.094100
     30 C31          2.1300     7.1490     5.6340 ca         1 UIR      -0.096000
     31 C32          2.1440     5.8350     6.1660 ca         1 UIR      -0.055000
     32 C6           4.3230    -0.2530     2.2850 ca         1 UIR      -0.064000
     33 C5           3.5180    -0.2560     1.1400 ca         1 UIR      -0.051000
     34 N2           1.8740     0.1600    -1.2710 n2         1 UIR      -0.512100
     35 HN11        -0.3340    -0.2890    -0.8980 hn         1 UIR       0.221467
     36 HN12        -0.3340    -0.6340     0.6990 hn         1 UIR       0.221467
     37 H9           0.4870     0.4410     2.5390 ha         1 UIR       0.103000
     38 H8           1.8900     0.4330     4.5970 ha         1 UIR       0.140000
     39 H10          5.4900    -0.5670     4.5800 h1         1 UIR       0.031700
     40 H121         3.7050    -2.2100     4.8230 h1         1 UIR       0.024200
     41 H122         2.6800    -2.1290     6.2790 h1         1 UIR       0.024200
     42 H131         5.3990    -3.1150     6.0500 hc         1 UIR       0.024700
     43 H132         4.3590    -3.0910     7.4860 hc         1 UIR       0.024700
     44 H141         6.5690    -1.3120     6.7560 hc         1 UIR       0.029700
     45 H142         5.7830    -1.5590     8.3350 hc         1 UIR       0.029700
     46 H15          4.2680     0.1860     7.9720 h1         1 UIR       0.057700
     47 H16          6.8200     0.7490     6.5770 hc         1 UIR       0.066700
     48 H18          6.9880     3.9290     6.8110 hc         1 UIR       0.075700
     49 H17          5.2180     1.9990     8.4530 h1         1 UIR       0.029700
     50 H421         5.7540     3.8320     9.6630 hc         1 UIR       0.051450
     51 H422         6.9410     5.1220     8.9870 hc         1 UIR       0.051450
     52 H411         7.4510     2.0580     9.2590 hc         1 UIR       0.051450
     53 H412         8.6380     3.3490     8.5820 hc         1 UIR       0.051450
     54 H22          5.9640     1.8640     4.5490 hc         1 UIR       0.064700
     55 H231         2.2910     3.4390     7.2440 h1         1 UIR       0.027700
     56 H232         3.4230     3.9960     8.4740 h1         1 UIR       0.027700
     57 H25          5.3260     5.6790     7.4170 ha         1 UIR       0.123000
     58 H281         5.7160     9.3930     4.9040 h2         1 UIR       0.017200
     59 H282         4.8720    10.4160     6.1230 h2         1 UIR       0.017200
     60 H31          1.2260     7.5670     5.2080 ha         1 UIR       0.119000
     61 H32          1.2320     5.2510     6.1380 ha         1 UIR       0.106000
     62 H6           5.4020    -0.2780     2.1890 ha         1 UIR       0.140000
     63 H5           4.1340    -0.4860     0.2790 ha         1 UIR       0.103000
     64 HN2          1.2730     0.2060    -2.0700 hn         1 UIR       0.334400
     65 H13         -0.3340     0.9230     0.1970 hn         1 UIR       0.221467
@<TRIPOS>BOND
     1     1     2 1   
     2     1    35 1   
     3     1    36 1   
     4     1    65 1   
     5     2     3 1   
     6     2    34 2   
     7     3     4 ar  
     8     3    33 ar  
     9     4     5 ar  
    10     4    37 1   
    11     5     6 ar  
    12     5    38 1   
    13     6     7 1   
    14     6    32 ar  
    15     7     8 1   
    16     7    21 1   
    17     7    39 1   
    18     8     9 1   
    19     8    12 1   
    20     9    10 1   
    21     9    40 1   
    22     9    41 1   
    23    10    11 1   
    24    10    42 1   
    25    10    43 1   
    26    11    12 1   
    27    11    44 1   
    28    11    45 1   
    29    12    13 1   
    30    12    46 1   
    31    13    15 1   
    32    13    21 1   
    33    13    47 1   
    34    14    15 1   
    35    14    16 1   
    36    14    17 1   
    37    14    48 1   
    38    15    18 1   
    39    15    49 1   
    40    16    17 1   
    41    16    50 1   
    42    16    51 1   
    43    17    52 1   
    44    17    53 1   
    45    18    19 1   
    46    18    22 1   
    47    19    20 2   
    48    19    21 1   
    49    21    54 1   
    50    22    23 1   
    51    22    55 1   
    52    22    56 1   
    53    23    24 ar  
    54    23    31 ar  
    55    24    25 ar  
    56    24    57 1   
    57    25    26 1   
    58    25    29 ar  
    59    26    27 1   
    60    27    28 1   
    61    27    58 1   
    62    27    59 1   
    63    28    29 1   
    64    29    30 ar  
    65    30    31 ar  
    66    30    60 1   
    67    31    61 1   
    68    32    33 ar  
    69    32    62 1   
    70    33    63 1   
    71    34    64 1   
@<TRIPOS>SUBSTRUCTURE
     1 UIR         1 TEMP              0 ****  ****    0 ROOT
