@<TRIPOS>MOLECULE
molecule
   65    71     1     0     0
SMALL
bcc


@<TRIPOS>ATOM
      1 N1           0.0000     0.0000     0.0000 nz         1 UIR      -0.727600
      2 C3           1.3340     0.0000     0.0000 ce         1 UIR       0.502800
      3 C4           2.1220     0.0000     1.1990 ca         1 UIR      -0.225900
      4 C9           1.5520     0.2540     2.4620 ca         1 UIR      -0.104000
      5 C8           2.3490     0.2680     3.6300 ca         1 UIR      -0.085000
      6 C7           3.7300     0.0220     3.5410 ca         1 UIR      -0.004300
      7 C10          4.6540     0.1030     4.7400 c3         1 UIR       0.189800
      8 N11          3.8650    -0.3910     5.9250 n3         1 UIR      -0.686600
      9 C12          3.6420    -1.8730     5.8500 c3         1 UIR       0.139800
     10 C13          4.7810    -2.4940     6.6870 c3         1 UIR      -0.110400
     11 C14          5.6230    -1.3820     7.2790 c3         1 UIR      -0.104400
     12 C15          4.8080    -0.0920     7.0750 c3         1 UIR       0.145500
     13 C16          5.7780     1.0440     6.6060 c3         1 UIR      -0.081700
     14 C18          6.5970     3.3710     7.6530 cx         1 UIR      -0.165700
     15 C17          5.5020     2.3380     7.4640 c3         1 UIR       0.160700
     16 C42          6.5670     4.1050     9.0000 cx         1 UIR      -0.127400
     17 C41          7.6270     2.9990     8.7510 cx         1 UIR      -0.127400
     18 N19          4.3290     2.9130     6.8680 n          1 UIR      -0.483800
     19 C20          4.1070     2.4770     5.5770 c          1 UIR       0.700500
     20 O21          3.0730     2.7860     4.8840 o          1 UIR      -0.666500
     21 C22          5.2050     1.4590     5.2080 c3         1 UIR      -0.123700
     22 C23          3.2700     3.8720     7.4090 c3         1 UIR       0.194300
     23 C24          3.3210     5.2490     6.7370 ca         1 UIR      -0.119300
     24 C25          4.5120     5.9910     6.7740 ca         1 UIR      -0.083000
     25 C26          4.4970     7.3430     6.2210 ca         1 UIR       0.003100
     26 O27          5.2440     8.4410     6.7060 os         1 UIR      -0.316900
     27 C28          4.9470     9.4370     5.6660 c3         1 UIR       0.310200
     28 O29          3.6540     9.0860     5.0640 os         1 UIR      -0.322900
     29 C30          3.3140     7.8830     5.6580 ca         1 UIR       0.084100
     30 C31          2.1300     7.1490     5.6340 ca         1 UIR      -0.120000
     31 C32          2.1440     5.8350     6.1660 ca         1 UIR      -0.091000
     32 C6           4.3230    -0.2530     2.2850 ca         1 UIR      -0.085000
     33 C5           3.5180    -0.2560     1.1400 ca         1 UIR      -0.104000
     34 N2           1.8740     0.1600    -1.2710 n2         1 UIR      -0.735100
     35 HN11        -0.3340    -0.7360     0.5900 hn         1 UIR       0.471800
     36 HN12        -0.3340    -0.1430    -0.9330 hn         1 UIR       0.471800
     37 H9           0.4870     0.4410     2.5390 ha         1 UIR       0.132000
     38 H8           1.8900     0.4350     4.5970 ha         1 UIR       0.173500
     39 H10          5.4900    -0.5670     4.5800 h1         1 UIR       0.052700
     40 H121         2.6800    -2.1290     6.2790 h1         1 UIR       0.057700
     41 H122         3.7050    -2.2100     4.8230 h1         1 UIR       0.057700
     42 H131         5.3990    -3.1150     6.0500 hc         1 UIR       0.054700
     43 H132         4.3590    -3.0910     7.4860 hc         1 UIR       0.054700
     44 H141         5.7830    -1.5590     8.3360 hc         1 UIR       0.058200
     45 H142         6.5690    -1.3120     6.7560 hc         1 UIR       0.058200
     46 H15          4.2680     0.1860     7.9720 h1         1 UIR       0.094700
     47 H16          6.8200     0.7490     6.5770 hc         1 UIR       0.093700
     48 H18          6.9880     3.9290     6.8110 hc         1 UIR       0.099700
     49 H17          5.2180     1.9990     8.4530 h1         1 UIR       0.052700
     50 H421         5.7540     3.8320     9.6630 hc         1 UIR       0.081450
     51 H422         6.9410     5.1220     8.9870 hc         1 UIR       0.081450
     52 H411         7.4510     2.0580     9.2590 hc         1 UIR       0.081450
     53 H412         8.6380     3.3490     8.5820 hc         1 UIR       0.081450
     54 H22          5.9640     1.8640     4.5490 hc         1 UIR       0.099700
     55 H231         2.2910     3.4390     7.2440 h1         1 UIR       0.065200
     56 H232         3.4230     3.9960     8.4740 h1         1 UIR       0.065200
     57 H25          5.3260     5.6790     7.4170 ha         1 UIR       0.153000
     58 H281         5.7160     9.3930     4.9040 h2         1 UIR       0.075200
     59 H282         4.8720    10.4160     6.1230 h2         1 UIR       0.075200
     60 H31          1.2260     7.5670     5.2080 ha         1 UIR       0.153000
     61 H32          1.2320     5.2510     6.1380 ha         1 UIR       0.139000
     62 H6           5.3370    -0.6310     2.2360 ha         1 UIR       0.173500
     63 H5           4.1700    -0.5490     0.3260 ha         1 UIR       0.132000
     64 HN2          2.8660     0.2300    -1.3900 hn         1 UIR       0.462400
     65 H13         -0.3340     0.8780     0.3450 hn         1 UIR       0.471800
@<TRIPOS>BOND
     1     1     2 1
     2     1    35 1
     3     1    36 1
     4     2     3 1
     5     2    34 2
     6     3     4 ar
     7     3    33 ar
     8     4     5 ar
     9     4    37 1
    10     5     6 ar
    11     5    38 1
    12     6     7 1
    13     6    32 ar
    14     7     8 1
    15     7    21 1
    16     7    39 1
    17     8     9 1
    18     8    12 1
    19     9    10 1
    20     9    40 1
    21     9    41 1
    22    10    11 1
    23    10    42 1
    24    10    43 1
    25    11    12 1
    26    11    44 1
    27    11    45 1
    28    12    13 1
    29    12    46 1
    30    13    15 1
    31    13    21 1
    32    13    47 1
    33    14    15 1
    34    14    16 1
    35    14    17 1
    36    14    48 1
    37    15    18 1
    38    15    49 1
    39    16    17 1
    40    16    50 1
    41    16    51 1
    42    17    52 1
    43    17    53 1
    44    18    19 1
    45    18    22 1
    46    19    20 2
    47    19    21 1
    48    21    54 1
    49    22    23 1
    50    22    55 1
    51    22    56 1
    52    23    24 ar
    53    23    31 ar
    54    24    25 ar
    55    24    57 1
    56    25    26 1
    57    25    29 ar
    58    26    27 1
    59    27    28 1
    60    27    58 1
    61    27    59 1
    62    28    29 1
    63    29    30 ar
    64    30    31 ar
    65    30    60 1
    66    31    61 1
    67    32    33 ar
    68    32    62 1
    69    33    63 1
    70    34    64 1
    71    65     1 1
@<TRIPOS>SUBSTRUCTURE
     1 UIR         1 TEMP              0 ****  ****    0 ROOT
