@<TRIPOS>MOLECULE
UJ6
   35    38     1     0     0
SMALL
bcc


@<TRIPOS>ATOM
      1 O1           0.0000     0.0000     0.0000 o          1 UJ6      -0.642500
      2 C2           1.2130     0.0000     0.0000 c          1 UJ6       0.612500
      3 C3           2.1120     0.0000     1.2180 c3         1 UJ6      -0.084400
      4 C4           1.8780    -1.2560     2.0580 c3         1 UJ6       0.057900
      5 C5           0.4860    -1.2220     2.6350 ca         1 UJ6      -0.077300
      6 C6          -0.5240    -1.9480     2.0420 ca         1 UJ6      -0.093000
      7 C7          -1.8060    -1.9220     2.5660 ca         1 UJ6      -0.118000
      8 C8          -2.0880    -1.1650     3.6900 ca         1 UJ6       0.026100
      9 O9          -3.2480    -0.9740     4.3850 os         1 UJ6      -0.337900
     10 C10         -3.0290     0.2060     5.1790 c3         1 UJ6       0.420200
     11 O11         -1.6030     0.2270     5.3750 os         1 UJ6      -0.291900
     12 C12         -1.0790    -0.4250     4.3000 ca         1 UJ6       0.076100
     13 C13          0.2190    -0.4570     3.7740 ca         1 UJ6      -0.047600
     14 C14          1.2970     0.3180     4.4160 c          1 UJ6       0.979200
     15 O15          2.1170    -0.2780     5.3050 o          1 UJ6      -0.882300
     16 O16          1.4470     1.4910     4.1420 o          1 UJ6      -0.882300
     17 C17          3.5100    -0.0020     0.6420 ca         1 UJ6      -0.115300
     18 C18          3.3640    -0.0020    -0.7380 ca         1 UJ6      -0.105400
     19 N19          2.0110    -0.0070    -1.0810 ns         1 UJ6      -0.032100
     20 C20          4.5060    -0.0050    -1.5380 ca         1 UJ6      -0.140000
     21 C21          5.7570    -0.0060    -0.9570 ca         1 UJ6      -0.090000
     22 C22          5.8890    -0.0050     0.4190 ca         1 UJ6      -0.139000
     23 C23          4.7600    -0.0030     1.2190 ca         1 UJ6      -0.030000
     24 H3           1.9490     0.8940     1.8070 hc         1 UJ6       0.118700
     25 H4           2.6010    -1.2920     2.8640 hc         1 UJ6       0.031200
     26 H4A          1.9890    -2.1340     1.4340 hc         1 UJ6       0.031200
     27 H6          -0.3120    -2.5520     1.1680 ha         1 UJ6       0.093000
     28 H7          -2.5930    -2.4960     2.0920 ha         1 UJ6       0.091000
     29 H10         -3.3380     1.0850     4.6260 h2         1 UJ6      -0.000300
     30 H10A        -3.5300     0.1040     6.1350 h2         1 UJ6      -0.000300
     31 HN19         1.6740    -0.0140    -2.0240 hn         1 UJ6       0.161500
     32 H20          4.4100    -0.0060    -2.6170 ha         1 UJ6       0.094000
     33 H21          6.6420    -0.0080    -1.5830 ha         1 UJ6       0.091000
     34 H22          6.8740    -0.0060     0.8700 ha         1 UJ6       0.100000
     35 H23          4.8590    -0.0020     2.2980 ha         1 UJ6       0.129000
@<TRIPOS>BOND
     1     1     2 2   
     2     2     3 1   
     3     2    19 1   
     4     3     4 1   
     5     3    17 1   
     6     3    24 1   
     7     4     5 1   
     8     4    25 1   
     9     4    26 1   
    10     5     6 ar  
    11     5    13 ar  
    12     6     7 ar  
    13     6    27 1   
    14     7     8 ar  
    15     7    28 1   
    16     8     9 1   
    17     8    12 ar  
    18     9    10 1   
    19    10    11 1   
    20    10    29 1   
    21    10    30 1   
    22    11    12 1   
    23    12    13 ar  
    24    13    14 1   
    25    14    15 1   
    26    14    16 1   
    27    17    18 ar  
    28    17    23 ar  
    29    18    19 1   
    30    18    20 ar  
    31    19    31 1   
    32    20    21 ar  
    33    20    32 1   
    34    21    22 ar  
    35    21    33 1   
    36    22    23 ar  
    37    22    34 1   
    38    23    35 1   
@<TRIPOS>SUBSTRUCTURE
     1 UJ6         1 TEMP              0 ****  ****    0 ROOT
