@<TRIPOS>MOLECULE
molecule
   52    55     1     0     0
SMALL
bcc


@<TRIPOS>ATOM
      1 C1           0.0000     0.0000     0.0000 c3         1 UJB       0.200500
      2 C2           2.1740     0.0000     1.1650 cc         1 UJB       0.749800
      3 N3           1.5770     0.2860     2.3520 n          1 UJB      -0.375300
      4 N4           1.4560     0.0000     0.0000 nh         1 UJB      -0.771600
      5 N5           3.4680    -0.2600     1.0980 nd         1 UJB      -0.760300
      6 C6           2.3310     0.4090     3.4700 c          1 UJB       0.704700
      7 C7           0.1300     0.4270     2.4770 c3         1 UJB       0.091000
      8 C8           4.2510    -0.2010     2.1790 cd         1 UJB       0.485600
      9 C9           3.7020     0.1540     3.4020 cc         1 UJB      -0.375200
     10 O10          1.8180     0.7430     4.5260 o          1 UJB      -0.650500
     11 C11         -0.5440     0.7990     1.1720 c3         1 UJB      -0.119400
     12 C12          6.5900     0.5770     1.8820 c3         1 UJB       0.232000
     13 C13          7.4870     0.1920     0.7020 c3         1 UJB       0.122900
     14 O14          8.0050    -1.1240     0.9120 os         1 UJB      -0.418600
     15 C15          7.0040    -2.1430     0.9690 c3         1 UJB       0.122900
     16 C16          6.0810    -1.8780     2.1640 c3         1 UJB       0.232000
     17 N17          5.5970    -0.4910     2.0780 nh         1 UJB      -0.784400
     18 C18         -0.5030     0.6170    -1.3060 c3         1 UJB       0.607900
     19 F19         -0.1580    -0.2130    -2.3790 f          1 UJB      -0.215300
     20 F20         -1.8950     0.7540    -1.2520 f          1 UJB      -0.215300
     21 F21          0.0830     1.8760    -1.4830 f          1 UJB      -0.215300
     22 S22          3.9780    -2.2580    -1.0680 ss         1 UJB      -0.040800
     23 C23          2.5480    -1.4130    -1.6440 cc         1 UJB      -0.068400
     24 C24          1.8500    -2.2110    -2.4530 cd         1 UJB      -0.144000
     25 C25          2.3940    -3.4700    -2.6410 cd         1 UJB      -0.157000
     26 C26          3.5350    -3.6940    -1.9840 cc         1 UJB       0.051300
     27 Cl           4.4420    -5.1720    -2.0280 cl         1 UJB      -0.059400
     28 C28          2.1700     0.0000    -1.2800 c3         1 UJB       0.305100
     29 C30          6.8580    -2.0730     3.4680 c3         1 UJB      -0.109100
     30 H1          -0.3530    -1.0210     0.0750 h1         1 UJB       0.089700
     31 H111        -0.3820     1.8540     0.9830 hc         1 UJB       0.079700
     32 H112        -1.6070     0.6120     1.2610 hc         1 UJB       0.079700
     33 H71C        -0.0810     1.1970     3.2090 h1         1 UJB       0.079700
     34 H72C        -0.2810    -0.5140     2.8240 h1         1 UJB       0.079700
     35 H281         3.0660     0.6030    -1.1930 h1         1 UJB       0.085700
     36 H282         1.5300     0.4140    -2.0500 h1         1 UJB       0.085700
     37 H9           4.3190     0.2080     4.2910 ha         1 UJB       0.176000
     38 H12          7.1930     0.6810     2.7770 h1         1 UJB       0.060700
     39 H131         8.3090     0.8950     0.6290 h1         1 UJB       0.053450
     40 H132         6.9070     0.2100    -0.2130 h1         1 UJB       0.053450
     41 H151         7.4790    -3.1090     1.0870 h1         1 UJB       0.053450
     42 H152         6.4230    -2.1290     0.0550 h1         1 UJB       0.053450
     43 H16          5.2390    -2.5590     2.1310 h1         1 UJB       0.060700
     44 H301         6.8460    -1.1510     4.0380 hc         1 UJB       0.046033
     45 H302         7.8830    -2.3430     3.2410 hc         1 UJB       0.046033
     46 H303         6.3970    -2.8620     4.0490 hc         1 UJB       0.046033
     47 H24          0.9270    -1.8980    -2.9260 ha         1 UJB       0.158000
     48 H25          1.9290    -4.2170    -3.2730 ha         1 UJB       0.157000
     49 C29          5.8760     1.8960     1.5790 c3         1 UJB      -0.109100
     50 H291         5.2540     1.7760     0.7000 hc         1 UJB       0.046033
     51 H292         5.2570     2.1740     2.4230 hc         1 UJB       0.046033
     52 H293         6.6110     2.6710     1.3980 hc         1 UJB       0.046033
@<TRIPOS>BOND
     1     1     4 1
     2     1    11 1
     3     1    18 1
     4     2     3 1
     5     2     4 1
     6     2     5 2
     7     3     6 1
     8     3     7 1
     9     4    28 1
    10     5     8 1
    11     6     9 1
    12     6    10 2
    13     7    11 1
    14     8     9 2
    15     8    17 1
    16    12    13 1
    17    12    17 1
    18    12    49 1
    19    13    14 1
    20    14    15 1
    21    15    16 1
    22    16    17 1
    23    16    29 1
    24    18    19 1
    25    18    20 1
    26    18    21 1
    27    22    23 1
    28    22    26 1
    29    23    24 2
    30    23    28 1
    31    24    25 1
    32    25    26 2
    33    26    27 1
    34     1    30 1
    35    11    31 1
    36    11    32 1
    37     7    33 1
    38     7    34 1
    39    28    35 1
    40    28    36 1
    41     9    37 1
    42    12    38 1
    43    13    39 1
    44    13    40 1
    45    49    50 1
    46    49    51 1
    47    49    52 1
    48    15    41 1
    49    15    42 1
    50    16    43 1
    51    29    44 1
    52    29    45 1
    53    29    46 1
    54    24    47 1
    55    25    48 1
@<TRIPOS>SUBSTRUCTURE
     1 UJB         1 TEMP              0 ****  ****    0 ROOT
