@<TRIPOS>MOLECULE
UJB
   52    55     1     0     0
SMALL
bcc


@<TRIPOS>ATOM
      1 C1           0.0000     0.0000     0.0000 c3         1 UJB       0.091500
      2 C2           2.1740     0.0000     1.1650 cc         1 UJB       0.431800
      3 N3           1.5770     0.2860     2.3520 n          1 UJB       0.042700
      4 N4           1.4560     0.0000     0.0000 nh         1 UJB      -0.408600
      5 N5           3.4680    -0.2600     1.0980 nd         1 UJB      -0.649300
      6 C6           2.3310     0.4090     3.4700 c          1 UJB       0.618700
      7 C7           0.1300     0.4270     2.4770 c3         1 UJB       0.024000
      8 C8           4.2510    -0.2010     2.1790 cd         1 UJB       0.341600
      9 C9           3.7020     0.1540     3.4020 cc         1 UJB      -0.358200
     10 O10          1.8180     0.7430     4.5260 o          1 UJB      -0.694500
     11 C11         -0.5440     0.7990     1.1720 c3         1 UJB      -0.055400
     12 C12          6.5900     0.5770     1.8820 c3         1 UJB       0.148500
     13 C13          7.4870     0.1920     0.7020 c3         1 UJB       0.186900
     14 O14          8.0050    -1.1240     0.9120 os         1 UJB      -0.403600
     15 C15          7.0040    -2.1430     0.9690 c3         1 UJB       0.186900
     16 C16          6.0810    -1.8780     2.1640 c3         1 UJB       0.148500
     17 N17          5.5970    -0.4910     2.0780 nh         1 UJB      -0.471400
     18 C18         -0.5030     0.6170    -1.3060 c3         1 UJB       0.572900
     19 F19         -0.1580    -0.2130    -2.3790 f          1 UJB      -0.197300
     20 F20         -1.8950     0.7540    -1.2520 f          1 UJB      -0.197300
     21 F21          0.0830     1.8760    -1.4830 f          1 UJB      -0.197300
     22 S22          3.9780    -2.2580    -1.0680 ss         1 UJB      -0.211800
     23 C23          2.5480    -1.4130    -1.6440 cc         1 UJB      -0.006400
     24 C24          1.8500    -2.2110    -2.4530 cd         1 UJB      -0.121000
     25 C25          2.3940    -3.4700    -2.6410 cd         1 UJB      -0.129000
     26 C26          3.5350    -3.6940    -1.9840 cc         1 UJB       0.039300
     27 Cl           4.4420    -5.1720    -2.0280 cl         1 UJB       0.054600
     28 C28          2.1700     0.0000    -1.2800 c3         1 UJB       0.235100
     29 C30          6.8580    -2.0730     3.4680 c3         1 UJB      -0.021100
     30 H1          -0.3530    -1.0210     0.0750 h1         1 UJB       0.064700
     31 H111        -0.3820     1.8540     0.9830 hc         1 UJB       0.048200
     32 H112        -1.6070     0.6120     1.2610 hc         1 UJB       0.048200
     33 H71C        -0.0810     1.1970     3.2090 h1         1 UJB       0.052700
     34 H72C        -0.2810    -0.5140     2.8240 h1         1 UJB       0.052700
     35 H281         3.0660     0.6030    -1.1930 h1         1 UJB       0.057700
     36 H282         1.5300     0.4140    -2.0500 h1         1 UJB       0.057700
     37 H9           4.3190     0.2080     4.2910 ha         1 UJB       0.155000
     38 H12          7.1930     0.6810     2.7770 h1         1 UJB       0.034700
     39 H131         8.3090     0.8950     0.6290 h1         1 UJB       0.018200
     40 H132         6.9070     0.2100    -0.2130 h1         1 UJB       0.018200
     41 H151         7.4790    -3.1090     1.0870 h1         1 UJB       0.018200
     42 H152         6.4230    -2.1290     0.0550 h1         1 UJB       0.018200
     43 H16          5.2390    -2.5590     2.1310 h1         1 UJB       0.034700
     44 H301         6.8460    -1.1510     4.0380 hc         1 UJB       0.013533
     45 H302         7.8830    -2.3430     3.2410 hc         1 UJB       0.013533
     46 H303         6.3970    -2.8620     4.0490 hc         1 UJB       0.013533
     47 H24          0.9270    -1.8980    -2.9260 ha         1 UJB       0.132000
     48 H25          1.9290    -4.2170    -3.2730 ha         1 UJB       0.129000
     49 C29          5.8760     1.8960     1.5790 c3         1 UJB      -0.021100
     50 H291         5.2540     1.7760     0.7000 hc         1 UJB       0.013533
     51 H292         5.2570     2.1740     2.4230 hc         1 UJB       0.013533
     52 H293         6.6110     2.6710     1.3980 hc         1 UJB       0.013533
@<TRIPOS>BOND
     1     1     4 1   
     2     1    11 1   
     3     1    18 1   
     4     1    30 1   
     5     2     3 1   
     6     2     4 1   
     7     2     5 2   
     8     3     6 1   
     9     3     7 1   
    10     4    28 1   
    11     5     8 1   
    12     6     9 1   
    13     6    10 2   
    14     7    11 1   
    15     7    33 1   
    16     7    34 1   
    17     8     9 2   
    18     8    17 1   
    19     9    37 1   
    20    11    31 1   
    21    11    32 1   
    22    12    13 1   
    23    12    17 1   
    24    12    38 1   
    25    12    49 1   
    26    13    14 1   
    27    13    39 1   
    28    13    40 1   
    29    14    15 1   
    30    15    16 1   
    31    15    41 1   
    32    15    42 1   
    33    16    17 1   
    34    16    29 1   
    35    16    43 1   
    36    18    19 1   
    37    18    20 1   
    38    18    21 1   
    39    22    23 1   
    40    22    26 1   
    41    23    24 2   
    42    23    28 1   
    43    24    25 1   
    44    24    47 1   
    45    25    26 2   
    46    25    48 1   
    47    26    27 1   
    48    28    35 1   
    49    28    36 1   
    50    29    44 1   
    51    29    45 1   
    52    29    46 1   
    53    49    50 1   
    54    49    51 1   
    55    49    52 1   
@<TRIPOS>SUBSTRUCTURE
     1 UJB         1 TEMP              0 ****  ****    0 ROOT
