@<TRIPOS>MOLECULE
molecule
   40    43     1     0     0
SMALL
bcc


@<TRIPOS>ATOM
      1 C1           0.0000     0.0000     0.0000 ca         1 UKC       0.657600
      2 O           -0.6690    -0.0080    -1.1810 os         1 UKC      -0.413100
      3 C           -2.0630    -0.0050    -0.8660 c3         1 UKC       0.116700
      4 C2           1.3860     0.0000     0.0000 ca         1 UKC      -0.271300
      5 C3           2.0600     0.0000     1.2120 ca         1 UKC      -0.067000
      6 C4           1.3170     0.0020     2.3870 ca         1 UKC      -0.171500
      7 N1           1.9840    -0.0390     3.6210 na         1 UKC      -0.080000
      8 C5           3.1470    -0.7220     3.8730 cc         1 UKC      -0.228900
      9 C6           3.9250    -1.5620     2.8920 c3         1 UKC      -0.015800
     10 C7           3.4630    -0.5010     5.1650 cd         1 UKC       0.321200
     11 N4           2.5260     0.2910     5.6980 nd         1 UKC      -0.683000
     12 C8           1.6230     0.5780     4.7820 cc         1 UKC       0.470000
     13 C9           0.4300     1.4210     4.9960 ca         1 UKC      -0.240800
     14 C10          0.4900     2.5230     5.8480 ca         1 UKC      -0.045000
     15 C11         -0.6610     3.2750     6.0300 ca         1 UKC      -0.270300
     16 C12         -1.8180     2.9110     5.3680 ca         1 UKC       0.442200
     17 N2          -1.8470     1.8670     4.5610 nb         1 UKC      -0.709000
     18 C13         -0.7790     1.1210     4.3450 ca         1 UKC       0.564800
     19 N3          -0.8460     0.0460     3.4710 na         1 UKC      -0.404700
     20 C14         -0.0710     0.0180     2.3140 ca         1 UKC       0.604800
     21 N           -0.6790     0.0110     1.1340 nb         1 UKC      -0.775000
     22 C15         -1.7470    -1.0700     3.7660 c3         1 UKC       0.074300
     23 C16         -1.0030    -2.1220     4.5920 c3         1 UKC      -0.121100
     24 H1          -2.3010     0.8810    -0.2890 h1         1 UKC       0.052367
     25 H2A         -2.3050    -0.8880    -0.2890 h1         1 UKC       0.052367
     26 H3A         -2.6400    -0.0030    -1.7830 h1         1 UKC       0.052367
     27 H2           1.9270     0.1750    -0.9220 ha         1 UKC       0.159000
     28 H3           3.1430     0.0000     1.2420 ha         1 UKC       0.159000
     29 H61          4.5140    -0.9170     2.2520 hc         1 UKC       0.048367
     30 H62          3.2370    -2.1400     2.2870 hc         1 UKC       0.048367
     31 H63          4.5820    -2.2330     3.4330 hc         1 UKC       0.048367
     32 H7           4.3290    -0.8950     5.6820 h4         1 UKC       0.043100
     33 H10          1.4110     2.7840     6.3550 ha         1 UKC       0.161000
     34 H11         -0.6540     4.1340     6.6890 ha         1 UKC       0.144000
     35 H12         -2.7180     3.4980     5.5090 h4         1 UKC       0.025100
     36 H151        -2.0870    -1.5140     2.8390 h1         1 UKC       0.059700
     37 H152        -2.6000    -0.7070     4.3270 h1         1 UKC       0.059700
     38 H161        -1.6890    -2.9120     4.8720 hc         1 UKC       0.043033
     39 H162        -0.6000    -1.6600     5.4850 hc         1 UKC       0.043033
     40 H163        -0.1940    -2.5370     4.0030 hc         1 UKC       0.043033
@<TRIPOS>BOND
     1     1     2 1
     2     1     4 ar
     3     1    21 ar
     4     2     3 1
     5     3    24 1
     6     3    25 1
     7     3    26 1
     8     4     5 ar
     9     4    27 1
    10     5     6 ar
    11     5    28 1
    12     6     7 1
    13     6    20 ar
    14     7     8 1
    15     7    12 1
    16     8     9 1
    17     8    10 2
    18     9    29 1
    19     9    30 1
    20     9    31 1
    21    10    11 1
    22    10    32 1
    23    11    12 2
    24    12    13 1
    25    13    14 ar
    26    13    18 ar
    27    14    15 ar
    28    14    33 1
    29    15    16 ar
    30    15    34 1
    31    16    17 ar
    32    16    35 1
    33    17    18 ar
    34    18    19 1
    35    19    20 1
    36    19    22 1
    37    20    21 ar
    38    22    23 1
    39    22    36 1
    40    22    37 1
    41    23    38 1
    42    23    39 1
    43    23    40 1
@<TRIPOS>SUBSTRUCTURE
     1 UKC         1 TEMP              0 ****  ****    0 ROOT
