@<TRIPOS>MOLECULE
molecule
   93    95     1     0     0
SMALL
bcc


@<TRIPOS>ATOM
      1 N            0.0000     0.0000     0.0000 n7         1 UKP      -0.894100
      2 CA           1.4650     0.0000     0.0000 c3         1 UKP       0.175500
      3 CX           3.0350     4.7370     2.5980 ce         1 UKP       0.564800
      4 O            1.1840    -2.0860    -1.0660 o          1 UKP      -0.554100
      5 CB           1.9750     0.0000     1.4430 c3         1 UKP      -0.054100
      6 CG1          1.6020     1.3000     2.1070 ca         1 UKP      -0.073300
      7 CD1          2.4660     2.3750     2.0510 ca         1 UKP      -0.042000
      8 CE1          2.1160     3.5790     2.6620 ca         1 UKP      -0.189900
      9 CZ           0.9000     3.6850     3.3350 ca         1 UKP      -0.113000
     10 CE2          0.0480     2.6020     3.3900 ca         1 UKP      -0.087000
     11 CD2          0.3970     1.4120     2.7780 ca         1 UKP      -0.047000
     12 NX1          2.6900     5.9250     3.2070 nz         1 UKP      -0.803600
     13 NX2          4.1690     4.6350     1.9690 n2         1 UKP      -0.717100
     14 C            1.9660    -1.2300    -0.7090 c          1 UKP       0.647100
     15 C6          -0.3850     1.2580    -2.4190 ca         1 UKP      -0.328500
     16 C7          -1.0760     0.4700    -3.3200 ca         1 UKP       0.031700
     17 C8          -0.7290     0.4810    -4.6580 ca         1 UKP      -0.153000
     18 C9           0.3090     1.2830    -5.0960 ca         1 UKP      -0.005300
     19 C10          1.0030     2.0680    -4.1950 ca         1 UKP      -0.153000
     20 C11          0.6520     2.0600    -2.8570 ca         1 UKP       0.031700
     21 C12         -2.2070    -0.4040    -2.8430 c3         1 UKP      -0.059900
     22 C13         -3.5430     0.2650    -3.1730 c3         1 UKP      -0.075100
     23 C14         -2.1310    -1.7640    -3.5410 c3         1 UKP      -0.075100
     24 C15          1.4050     2.9210    -1.8770 c3         1 UKP      -0.059900
     25 C16          2.8450     3.1030    -2.3570 c3         1 UKP      -0.075100
     26 C17          0.7260     4.2870    -1.7720 c3         1 UKP      -0.075100
     27 C18          0.6870     1.2950    -6.5540 c3         1 UKP      -0.041400
     28 C19          0.5300     2.7120    -7.1090 c3         1 UKP      -0.084600
     29 C20          2.1410     0.8460    -6.7070 c3         1 UKP      -0.084600
     30 S           -0.8270     1.2440    -0.7140 sy         1 UKP       1.428200
     31 OS1         -0.2850     2.4350    -0.1650 o          1 UKP      -0.637300
     32 OS2         -2.1970     0.8690    -0.6740 o          1 UKP      -0.637300
     33 N1           3.2840    -1.3810    -0.9480 n          1 UKP      -0.498800
     34 C1           3.7900    -2.5860    -1.6190 c3         1 UKP       0.086000
     35 C2           4.6010    -2.1590    -2.8490 c3         1 UKP       0.081000
     36 N2           5.5570    -1.1200    -2.4430 n          1 UKP      -0.473800
     37 C4           5.0510     0.0860    -1.7740 c3         1 UKP       0.081000
     38 C5           4.2400    -0.3390    -0.5480 c3         1 UKP       0.086000
     39 C21          6.8750    -1.2710    -2.6820 c          1 UKP       0.669100
     40 O1           7.2810    -2.2700    -3.2350 o          1 UKP      -0.581100
     41 C22          7.8440    -0.1970    -2.2600 c3         1 UKP      -0.195400
     42 C23          9.2650    -0.6120    -2.6450 c3         1 UKP       0.107800
     43 N24         10.2100     0.4340    -2.2350 nz         1 UKP      -0.812600
     44 HN1         -0.5000    -0.7380     0.4550 hn         1 UKP       0.473800
     45 HA1          1.8270     0.8840    -0.5110 h1         1 UKP       0.084700
     46 HCB1         3.0530    -0.1100     1.4450 hc         1 UKP       0.072200
     47 HCB2         1.5270    -0.8240     1.9840 hc         1 UKP       0.072200
     48 HD11         3.4500     2.2550     1.6140 ha         1 UKP       0.147000
     49 HZ1          0.6250     4.6170     3.8150 ha         1 UKP       0.110000
     50 HE21        -0.8970     2.6830     3.9130 ha         1 UKP       0.167000
     51 HD21        -0.2750     0.5640     2.8240 ha         1 UKP       0.161000
     52 HX11         1.8330     6.2630     2.8160 hn         1 UKP       0.468800
     53 HX12         3.4140     6.5990     3.0560 hn         1 UKP       0.468800
     54 HX21         4.7910     5.4190     1.9260 hn         1 UKP       0.427400
     55 H81         -1.2710    -0.1360    -5.3640 ha         1 UKP       0.144500
     56 H101         1.8160     2.6970    -4.5380 ha         1 UKP       0.144500
     57 H121        -2.1280    -0.5440    -1.7710 hc         1 UKP       0.077200
     58 H131        -4.3180    -0.1430    -2.5360 hc         1 UKP       0.037700
     59 H132        -3.7930     0.0790    -4.2110 hc         1 UKP       0.037700
     60 H133        -3.4630     1.3320    -3.0060 hc         1 UKP       0.037700
     61 H141        -2.7150    -2.4880    -2.9870 hc         1 UKP       0.037700
     62 H142        -1.0990    -2.0900    -3.5850 hc         1 UKP       0.037700
     63 H143        -2.5240    -1.6760    -4.5470 hc         1 UKP       0.037700
     64 H151         1.4060     2.4430    -0.9040 hc         1 UKP       0.077200
     65 H161         3.4750     3.3680    -1.5170 hc         1 UKP       0.037700
     66 H162         3.1990     2.1780    -2.7970 hc         1 UKP       0.037700
     67 H163         2.8810     3.8920    -3.0980 hc         1 UKP       0.037700
     68 H171         0.9960     4.8910    -2.6300 hc         1 UKP       0.037700
     69 H172        -0.3490     4.1560    -1.7470 hc         1 UKP       0.037700
     70 H173         1.0500     4.7830    -0.8650 hc         1 UKP       0.037700
     71 H181         0.0410     0.6190    -7.1000 hc         1 UKP       0.070700
     72 H191         1.3560     3.3260    -6.7720 hc         1 UKP       0.038867
     73 H192        -0.4030     3.1370    -6.7570 hc         1 UKP       0.038867
     74 H193         0.5240     2.6770    -8.1920 hc         1 UKP       0.038867
     75 H201         2.3540     0.6650    -7.7540 hc         1 UKP       0.038867
     76 H202         2.2990    -0.0660    -6.1440 hc         1 UKP       0.038867
     77 H203         2.8000     1.6200    -6.3330 hc         1 UKP       0.038867
     78 H11          4.4270    -3.1390    -0.9390 h1         1 UKP       0.071200
     79 H12          2.9570    -3.2050    -1.9300 h1         1 UKP       0.071200
     80 H21          3.9320    -1.7620    -3.6030 h1         1 UKP       0.071950
     81 H22          5.1380    -3.0130    -3.2430 h1         1 UKP       0.071950
     82 H41          4.4160     0.6390    -2.4550 h1         1 UKP       0.071950
     83 H42          5.8840     0.7040    -1.4610 h1         1 UKP       0.071950
     84 H51          4.9070    -0.7310     0.2100 h1         1 UKP       0.071200
     85 H52          3.7010     0.5160    -0.1570 h1         1 UKP       0.071200
     86 H221         7.5920     0.7320    -2.7570 hc         1 UKP       0.076200
     87 H222         7.7860    -0.0600    -1.1870 hc         1 UKP       0.076200
     88 H231         9.3230    -0.7500    -3.7180 hx         1 UKP       0.134700
     89 H232         9.5170    -1.5420    -2.1490 hx         1 UKP       0.134700
     90 H241        11.1390     0.1640    -2.4910 hn         1 UKP       0.458133
     91 H242        10.1610     0.5570    -1.2430 hn         1 UKP       0.458133
     92 HX13         2.5590     5.7720     4.1870 hn         1 UKP       0.468800
     93 H243         9.9700     1.2960    -2.6830 hn         1 UKP       0.458133
@<TRIPOS>BOND
     1     1     2 1
     2     1    30 1
     3     1    44 1
     4     2     5 1
     5     2    14 1
     6     2    45 1
     7     3     8 1
     8     3    12 1
     9     3    13 2
    10     4    14 2
    11     5     6 1
    12     5    46 1
    13     5    47 1
    14     6     7 ar
    15     6    11 ar
    16     7     8 ar
    17     7    48 1
    18     8     9 ar
    19     9    10 ar
    20     9    49 1
    21    10    11 ar
    22    10    50 1
    23    11    51 1
    24    12    52 1
    25    12    53 1
    26    13    54 1
    27    14    33 1
    28    15    16 ar
    29    15    20 ar
    30    15    30 1
    31    16    17 ar
    32    16    21 1
    33    17    18 ar
    34    17    55 1
    35    18    19 ar
    36    18    27 1
    37    19    20 ar
    38    19    56 1
    39    20    24 1
    40    21    22 1
    41    21    23 1
    42    21    57 1
    43    22    58 1
    44    22    59 1
    45    22    60 1
    46    23    61 1
    47    23    62 1
    48    23    63 1
    49    24    25 1
    50    24    26 1
    51    24    64 1
    52    25    65 1
    53    25    66 1
    54    25    67 1
    55    26    68 1
    56    26    69 1
    57    26    70 1
    58    27    28 1
    59    27    29 1
    60    27    71 1
    61    28    72 1
    62    28    73 1
    63    28    74 1
    64    29    75 1
    65    29    76 1
    66    29    77 1
    67    30    31 2
    68    30    32 2
    69    33    34 1
    70    33    38 1
    71    34    35 1
    72    34    78 1
    73    34    79 1
    74    35    36 1
    75    35    80 1
    76    35    81 1
    77    36    37 1
    78    36    39 1
    79    37    38 1
    80    37    82 1
    81    37    83 1
    82    38    84 1
    83    38    85 1
    84    39    40 2
    85    39    41 1
    86    41    42 1
    87    41    86 1
    88    41    87 1
    89    42    43 1
    90    42    88 1
    91    42    89 1
    92    43    90 1
    93    43    91 1
    94    92    12 1
    95    93    43 1
@<TRIPOS>SUBSTRUCTURE
     1 UKP         1 TEMP              0 ****  ****    0 ROOT
