@<TRIPOS>MOLECULE
UKP
   93    95     1     0     0
SMALL
bcc


@<TRIPOS>ATOM
      1 N            0.0000     0.0000     0.0000 n7         1 UKP      -0.561100
      2 CA           1.4650     0.0000     0.0000 c3         1 UKP       0.116500
      3 CX           3.0350     4.7370     2.5980 ce         1 UKP       0.244800
      4 O            1.1840    -2.0860    -1.0660 o          1 UKP      -0.589100
      5 CB           1.9750     0.0000     1.4430 c3         1 UKP      -0.000100
      6 CG1          1.6020     1.3000     2.1070 ca         1 UKP      -0.061300
      7 CD1          2.4660     2.3750     2.0510 ca         1 UKP      -0.054000
      8 CE1          2.1160     3.5790     2.6620 ca         1 UKP      -0.226900
      9 CZ           0.9000     3.6850     3.3350 ca         1 UKP      -0.076000
     10 CE2          0.0480     2.6020     3.3900 ca         1 UKP      -0.040000
     11 CD2          0.3970     1.4120     2.7780 ca         1 UKP      -0.011000
     12 NX1          2.6900     5.9250     3.2070 nz         1 UKP       0.184400
     13 NX2          4.1690     4.6350     1.9690 n2         1 UKP      -0.526100
     14 C            1.9660    -1.2300    -0.7090 c          1 UKP       0.570100
     15 C6          -0.3850     1.2580    -2.4190 ca         1 UKP      -0.172500
     16 C7          -1.0760     0.4700    -3.3200 ca         1 UKP       0.036700
     17 C8          -0.7290     0.4810    -4.6580 ca         1 UKP      -0.140500
     18 C9           0.3090     1.2830    -5.0960 ca         1 UKP      -0.009300
     19 C10          1.0030     2.0680    -4.1950 ca         1 UKP      -0.140500
     20 C11          0.6520     2.0600    -2.8570 ca         1 UKP       0.036700
     21 C12         -2.2070    -0.4040    -2.8430 c3         1 UKP      -0.059400
     22 C13         -3.5430     0.2650    -3.1730 c3         1 UKP       0.018650
     23 C14         -2.1310    -1.7640    -3.5410 c3         1 UKP       0.018650
     24 C15          1.4050     2.9210    -1.8770 c3         1 UKP      -0.059400
     25 C16          2.8450     3.1030    -2.3570 c3         1 UKP       0.018650
     26 C17          0.7260     4.2870    -1.7720 c3         1 UKP       0.018650
     27 C18          0.6870     1.2950    -6.5540 c3         1 UKP      -0.009400
     28 C19          0.5300     2.7120    -7.1090 c3         1 UKP       0.009900
     29 C20          2.1410     0.8460    -6.7070 c3         1 UKP       0.009900
     30 S           -0.8270     1.2440    -0.7140 sy         1 UKP       1.048200
     31 OS1         -0.2850     2.4350    -0.1650 o          1 UKP      -0.585300
     32 OS2         -2.1970     0.8690    -0.6740 o          1 UKP      -0.585300
     33 N1           3.2840    -1.3810    -0.9480 n          1 UKP      -0.167800
     34 C1           3.7900    -2.5860    -1.6190 c3         1 UKP       0.030000
     35 C2           4.6010    -2.1590    -2.8490 c3         1 UKP       0.023500
     36 N2           5.5570    -1.1200    -2.4430 n          1 UKP      -0.128800
     37 C4           5.0510     0.0860    -1.7740 c3         1 UKP       0.023500
     38 C5           4.2400    -0.3390    -0.5480 c3         1 UKP       0.030000
     39 C21          6.8750    -1.2710    -2.6820 c          1 UKP       0.587100
     40 O1           7.2810    -2.2700    -3.2350 o          1 UKP      -0.613100
     41 C22          7.8440    -0.1970    -2.2600 c3         1 UKP      -0.117400
     42 C23          9.2650    -0.6120    -2.6450 c3         1 UKP      -0.037200
     43 N24         10.2100     0.4340    -2.2350 nz         1 UKP       0.085400
     44 HN1         -0.5010    -0.7580     0.4210 hn         1 UKP       0.372800
     45 HA1          1.8270     0.8840    -0.5110 h1         1 UKP       0.060700
     46 HCB1         1.5270    -0.8240     1.9840 hc         1 UKP       0.039200
     47 HCB2         3.0530    -0.1100     1.4450 hc         1 UKP       0.039200
     48 HD11         3.4510     2.2550     1.6160 ha         1 UKP       0.094000
     49 HZ1          0.6250     4.6170     3.8150 ha         1 UKP       0.086000
     50 HE21        -0.8970     2.6830     3.9130 ha         1 UKP       0.131000
     51 HD21        -0.2750     0.5640     2.8240 ha         1 UKP       0.128000
     52 HX11         2.5710     5.7740     4.1890 hn         1 UKP       0.225800
     53 HX12         1.8340     6.2640     2.8140 hn         1 UKP       0.225800
     54 HX21         4.4210     3.7740     1.5260 hn         1 UKP       0.368400
     55 H81         -1.2710    -0.1360    -5.3640 ha         1 UKP       0.128000
     56 H101         1.8160     2.6970    -4.5380 ha         1 UKP       0.128000
     57 H121        -2.1280    -0.5440    -1.7710 hc         1 UKP       0.075700
     58 H131        -3.7840     0.0940    -4.2150 hc         1 UKP       0.005117
     59 H132        -3.4690     1.3300    -2.9900 hc         1 UKP       0.005117
     60 H133        -4.3210    -0.1560    -2.5480 hc         1 UKP       0.005117
     61 H141        -2.7040    -2.4910    -2.9790 hc         1 UKP       0.005117
     62 H142        -1.0970    -2.0840    -3.5970 hc         1 UKP       0.005117
     63 H143        -2.5360    -1.6790    -4.5420 hc         1 UKP       0.005117
     64 H151         1.4060     2.4430    -0.9040 hc         1 UKP       0.075700
     65 H161         2.8850     3.9090    -3.0800 hc         1 UKP       0.005117
     66 H162         3.4800     3.3430    -1.5130 hc         1 UKP       0.005117
     67 H163         3.1900     2.1860    -2.8190 hc         1 UKP       0.005117
     68 H171         1.0500     4.7840    -0.8650 hc         1 UKP       0.005117
     69 H172        -0.3490     4.1560    -1.7470 hc         1 UKP       0.005117
     70 H173         0.9950     4.8910    -2.6300 hc         1 UKP       0.005117
     71 H181         0.0410     0.6190    -7.1000 hc         1 UKP       0.042700
     72 H191         0.5160     2.6760    -8.1920 hc         1 UKP       0.006200
     73 H192        -0.3990     3.1400    -6.7510 hc         1 UKP       0.006200
     74 H193         1.3600     3.3240    -6.7790 hc         1 UKP       0.006200
     75 H201         2.3010    -0.0610    -6.1380 hc         1 UKP       0.006200
     76 H202         2.8000     1.6240    -6.3400 hc         1 UKP       0.006200
     77 H203         2.3520     0.6580    -7.7530 hc         1 UKP       0.006200
     78 H11          2.9570    -3.2050    -1.9300 h1         1 UKP       0.043700
     79 H12          4.4270    -3.1390    -0.9390 h1         1 UKP       0.043700
     80 H21          5.1380    -3.0130    -3.2430 h1         1 UKP       0.043950
     81 H22          3.9320    -1.7620    -3.6030 h1         1 UKP       0.043950
     82 H41          4.4160     0.6390    -2.4550 h1         1 UKP       0.043950
     83 H42          5.8840     0.7030    -1.4610 h1         1 UKP       0.043950
     84 H51          4.9070    -0.7310     0.2100 h1         1 UKP       0.043700
     85 H52          3.7010     0.5160    -0.1570 h1         1 UKP       0.043700
     86 H221         7.5920     0.7320    -2.7570 hc         1 UKP       0.041700
     87 H222         7.7860    -0.0600    -1.1870 hc         1 UKP       0.041700
     88 H231         9.5170    -1.5420    -2.1490 hx         1 UKP       0.105700
     89 H232         9.3230    -0.7500    -3.7180 hx         1 UKP       0.105700
     90 H241        11.1390     0.1630    -2.4890 hn         1 UKP       0.223467
     91 H242         9.9760     1.2930    -2.6920 hn         1 UKP       0.223467
     92 HX13         3.4100     6.6020     3.0480 hn         1 UKP       0.225800
     93 H243        10.1560     0.5620    -1.2440 hn         1 UKP       0.223467
@<TRIPOS>BOND
     1     1     2 1   
     2     1    30 1   
     3     1    44 1   
     4     2     5 1   
     5     2    14 1   
     6     2    45 1   
     7     3     8 1   
     8     3    12 1   
     9     3    13 2   
    10     4    14 2   
    11     5     6 1   
    12     5    46 1   
    13     5    47 1   
    14     6     7 ar  
    15     6    11 ar  
    16     7     8 ar  
    17     7    48 1   
    18     8     9 ar  
    19     9    10 ar  
    20     9    49 1   
    21    10    11 ar  
    22    10    50 1   
    23    11    51 1   
    24    12    52 1   
    25    12    53 1   
    26    12    92 1   
    27    13    54 1   
    28    14    33 1   
    29    15    16 ar  
    30    15    20 ar  
    31    15    30 1   
    32    16    17 ar  
    33    16    21 1   
    34    17    18 ar  
    35    17    55 1   
    36    18    19 ar  
    37    18    27 1   
    38    19    20 ar  
    39    19    56 1   
    40    20    24 1   
    41    21    22 1   
    42    21    23 1   
    43    21    57 1   
    44    22    58 1   
    45    22    59 1   
    46    22    60 1   
    47    23    61 1   
    48    23    62 1   
    49    23    63 1   
    50    24    25 1   
    51    24    26 1   
    52    24    64 1   
    53    25    65 1   
    54    25    66 1   
    55    25    67 1   
    56    26    68 1   
    57    26    69 1   
    58    26    70 1   
    59    27    28 1   
    60    27    29 1   
    61    27    71 1   
    62    28    72 1   
    63    28    73 1   
    64    28    74 1   
    65    29    75 1   
    66    29    76 1   
    67    29    77 1   
    68    30    31 2   
    69    30    32 2   
    70    33    34 1   
    71    33    38 1   
    72    34    35 1   
    73    34    78 1   
    74    34    79 1   
    75    35    36 1   
    76    35    80 1   
    77    35    81 1   
    78    36    37 1   
    79    36    39 1   
    80    37    38 1   
    81    37    82 1   
    82    37    83 1   
    83    38    84 1   
    84    38    85 1   
    85    39    40 2   
    86    39    41 1   
    87    41    42 1   
    88    41    86 1   
    89    41    87 1   
    90    42    43 1   
    91    42    88 1   
    92    42    89 1   
    93    43    90 1   
    94    43    91 1   
    95    43    93 1   
@<TRIPOS>SUBSTRUCTURE
     1 UKP         1 TEMP              0 ****  ****    0 ROOT
