@<TRIPOS>MOLECULE
UKW
   31    31     1     0     0
SMALL
bcc


@<TRIPOS>ATOM
      1 O01          0.0000     0.0000     0.0000 o          1 UKW      -0.501100
      2 C02          1.2080     0.0000     0.0000 c          1 UKW       0.598500
      3 N03          1.8820     0.0050    -1.1670 ne         1 UKW       0.021900
      4 O04          1.2730     0.0110    -2.2220 o          1 UKW      -0.138300
      5 C05          1.9610     0.0000     1.3050 c3         1 UKW      -0.048300
      6 N06          1.0080     0.0000     2.4190 ns         1 UKW      -0.202900
      7 C07          1.3750     0.4940     3.6190 c          1 UKW       0.602700
      8 O08          2.4940     0.9390     3.7760 o          1 UKW      -0.621100
      9 C09          0.4150     0.4940     4.7410 ca         1 UKW      -0.155600
     10 C10          0.7940     1.0060     5.9850 ca         1 UKW      -0.058500
     11 C11         -0.1010     1.0060     7.0300 ca         1 UKW      -0.099500
     12 C12         -1.3870     0.4940     6.8480 ca         1 UKW       0.078000
     13 C13         -1.7670    -0.0180     5.6050 ca         1 UKW      -0.099500
     14 C14         -0.8750    -0.0130     4.5570 ca         1 UKW      -0.058500
     15 C15         -2.3180     0.4940     7.9370 cg         1 UKW      -0.142000
     16 C16         -3.0720     0.5100     8.8370 c1         1 UKW      -0.095500
     17 C25          2.8410    -1.2480     1.3870 c3         1 UKW       0.183100
     18 C26          3.8350    -1.2480     0.2240 c3         1 UKW      -0.040100
     19 O27          3.5550    -1.2480     2.6250 oh         1 UKW      -0.555800
     20 H05          2.5830     0.8850     1.3630 h1         1 UKW       0.092700
     21 HN06         0.0760    -0.3370     2.2800 hn         1 UKW       0.196500
     22 H10          1.7920     1.4030     6.1260 ha         1 UKW       0.117500
     23 H11          0.1930     1.4030     7.9950 ha         1 UKW       0.113000
     24 H13         -2.7660    -0.4130     5.4640 ha         1 UKW       0.113000
     25 H14         -1.1690    -0.4100     3.5930 ha         1 UKW       0.117500
     26 H16         -3.7820     0.5280     9.6550 ha         1 UKW       0.140500
     27 H25          2.2180    -2.1330     1.3290 h1         1 UKW      -0.002300
     28 H26          4.7270    -1.7920     0.5120 hc         1 UKW       0.019033
     29 H26A         3.3840    -1.7250    -0.6370 hc         1 UKW       0.019033
     30 H26B         4.0990    -0.2280    -0.0260 hc         1 UKW       0.019033
     31 HO27         3.8000    -2.1310     2.8460 ho         1 UKW       0.389000
@<TRIPOS>BOND
     1     1     2 2   
     2     2     3 1   
     3     2     5 1   
     4     3     4 2   
     5     5     6 1   
     6     5    17 1   
     7     5    20 1   
     8     6     7 1   
     9     6    21 1   
    10     7     8 2   
    11     7     9 1   
    12     9    10 ar  
    13     9    14 ar  
    14    10    11 ar  
    15    10    22 1   
    16    11    12 ar  
    17    11    23 1   
    18    12    13 ar  
    19    12    15 1   
    20    13    14 ar  
    21    13    24 1   
    22    14    25 1   
    23    15    16 3   
    24    16    26 1   
    25    17    18 1   
    26    17    19 1   
    27    17    27 1   
    28    18    28 1   
    29    18    29 1   
    30    18    30 1   
    31    19    31 1   
@<TRIPOS>SUBSTRUCTURE
     1 UKW         1 TEMP              0 ****  ****    0 ROOT
