@<TRIPOS>MOLECULE
UL4
   40    41     1     0     0
SMALL
bcc


@<TRIPOS>ATOM
      1 O4           0.0000     0.0000     0.0000 o          1 UL4      -0.879300
      2 C16          1.3470     0.0000     0.0000 c          1 UL4       0.972200
      3 O3           1.9550     0.0000     1.0520 o          1 UL4      -0.879300
      4 C15          2.0860    -0.0000    -1.2800 ca         1 UL4      -0.118600
      5 C14          1.3890     0.0060    -2.4910 ca         1 UL4      -0.037000
      6 C13          2.0780     0.0060    -3.6870 ca         1 UL4      -0.153000
      7 C12          3.4590    -0.0000    -3.6960 ca         1 UL4      -0.115000
      8 C17          3.4800     0.0000    -1.2810 ca         1 UL4      -0.001000
      9 C11          4.1690    -0.0060    -2.4930 ca         1 UL4      -0.208600
     10 C10          5.6470    -0.0130    -2.5040 c          1 UL4       0.598700
     11 O2           6.2630    -0.0170    -1.4560 o          1 UL4      -0.639100
     12 N            6.3120    -0.0130    -3.6760 ns         1 UL4      -0.052100
     13 C9           7.7100     0.0760    -3.6890 ca         1 UL4      -0.113400
     14 C8           8.4490    -0.5230    -2.6870 ca         1 UL4      -0.001000
     15 C5           9.8460    -0.4330    -2.7040 ca         1 UL4      -0.215600
     16 C6          10.6380    -1.0680    -1.6420 c          1 UL4       0.623700
     17 O1          10.0820    -1.6720    -0.7490 o          1 UL4      -0.551100
     18 C7          12.1420    -0.9680    -1.6620 c3         1 UL4      -0.093100
     19 C4          10.4860     0.2640    -3.7350 ca         1 UL4      -0.053000
     20 C3           9.7420     0.8600    -4.7300 ca         1 UL4      -0.219000
     21 C2           8.3560     0.7640    -4.7170 ca         1 UL4       0.139100
     22 O            7.6290     1.3470    -5.7030 os         1 UL4      -0.306900
     23 C1           8.3540     2.0360    -6.7240 c3         1 UL4       0.206400
     24 C            7.3730     2.6230    -7.7400 c3         1 UL4      -0.000100
     25 H2           0.3060     0.0100    -2.4920 ha         1 UL4       0.129000
     26 H3           1.5340     0.0100    -4.6230 ha         1 UL4       0.086000
     27 H4           3.9930    -0.0030    -4.6380 ha         1 UL4       0.079000
     28 H5           4.0260    -0.0040    -0.3450 ha         1 UL4       0.145000
     29 H6           5.8100    -0.1160    -4.5350 hn         1 UL4       0.182500
     30 H7           7.9550    -1.1370    -1.9430 ha         1 UL4       0.169000
     31 H8          12.5500    -1.4930    -0.8070 hc         1 UL4       0.020700
     32 H9          12.5220    -1.4130    -2.5740 hc         1 UL4       0.020700
     33 H10         12.4350     0.0740    -1.6200 hc         1 UL4       0.020700
     34 H11         11.5660     0.3390    -3.7490 ha         1 UL4       0.100000
     35 H12         10.2400     1.3970    -5.5280 ha         1 UL4       0.116000
     36 H13          9.0200     1.3430    -7.2240 h1         1 UL4      -0.001800
     37 H14          8.9340     2.8360    -6.2780 h1         1 UL4      -0.001800
     38 H15          7.9220     3.1480    -8.5120 hc         1 UL4       0.010700
     39 H16          6.7050     3.3140    -7.2390 hc         1 UL4       0.010700
     40 H17          6.7950     1.8230    -8.1880 hc         1 UL4       0.010700
@<TRIPOS>BOND
     1     1     2 1   
     2     2     3 1   
     3     2     4 1   
     4     4     5 ar  
     5     4     8 ar  
     6     5     6 ar  
     7     5    25 1   
     8     6     7 ar  
     9     6    26 1   
    10     7     9 ar  
    11     7    27 1   
    12     8     9 ar  
    13     8    28 1   
    14     9    10 1   
    15    10    11 2   
    16    10    12 1   
    17    12    13 1   
    18    12    29 1   
    19    13    14 ar  
    20    13    21 ar  
    21    14    15 ar  
    22    14    30 1   
    23    15    16 1   
    24    15    19 ar  
    25    16    17 2   
    26    16    18 1   
    27    18    31 1   
    28    18    32 1   
    29    18    33 1   
    30    19    20 ar  
    31    19    34 1   
    32    20    21 ar  
    33    20    35 1   
    34    21    22 1   
    35    22    23 1   
    36    23    24 1   
    37    23    36 1   
    38    23    37 1   
    39    24    38 1   
    40    24    39 1   
    41    24    40 1   
@<TRIPOS>SUBSTRUCTURE
     1 UL4         1 TEMP              0 ****  ****    0 ROOT
