@<TRIPOS>MOLECULE
UL7
   47    49     1     0     0
SMALL
bcc


@<TRIPOS>ATOM
      1 N            0.0000     0.0000     0.0000 n3         1 UL7      -0.534600
      2 C            1.4680     0.0000     0.0000 c3         1 UL7       0.144800
      3 C01         -6.0590    -3.6320    -4.1870 ca         1 UL7      -0.058600
      4 C1          -4.1980    -2.1390    -4.3980 ca         1 UL7      -0.103300
      5 N1          -2.1080    -1.6170    -3.2750 n3         1 UL7      -0.533600
      6 C02         -6.9180    -2.5520    -4.0710 ca         1 UL7      -0.055000
      7 C2          -2.7190    -1.9140    -4.5770 c3         1 UL7       0.220100
      8 C03         -0.6430    -1.6270    -3.3660 c3         1 UL7       0.143800
      9 C3          -4.7020    -3.4250    -4.3510 ca         1 UL7      -0.048000
     10 C04         -0.5310     1.2050     0.6490 c3         1 UL7       0.144800
     11 C4          -6.4190    -1.2640    -4.1180 ca         1 UL7      -0.032900
     12 C05         -0.0800     1.2400     2.1120 c3         1 UL7      -0.038400
     13 C06          1.4500     1.2400     2.1680 c3         1 UL7       0.189100
     14 O            1.9520     2.4160     1.5300 oh         1 UL7      -0.587800
     15 C07          1.9800     0.0000     1.4430 c3         1 UL7      -0.038400
     16 C7          -5.0550    -1.0540    -4.2830 ca         1 UL7       0.158100
     17 C10         -0.5260    -0.1380    -1.3640 c3         1 UL7       0.130500
     18 C15         -2.0570    -0.1350    -1.3250 c3         1 UL7      -0.033400
     19 C16         -2.5990    -0.3400    -2.7410 c3         1 UL7       0.143800
     20 Cl          -6.6880    -5.2480    -4.1210 cl         1 UL7      -0.015400
     21 Br          -7.5900     0.2110    -3.9610 br         1 UL7      -0.108100
     22 C8          -0.0420    -1.4590    -1.9680 c3         1 UL7      -0.033400
     23 HC1          1.8280    -0.8860    -0.5090 h1         1 UL7       0.019450
     24 HC2          1.8280     0.8860    -0.5090 h1         1 UL7       0.019450
     25 H041        -0.1590     2.0840     0.1370 h1         1 UL7       0.019450
     26 H042        -1.6140     1.1880     0.6080 h1         1 UL7       0.019450
     27 H10         -0.1800     0.6860    -1.9760 h1         1 UL7       0.008700
     28 H071         3.0630     0.0190     1.4410 hc         1 UL7       0.022200
     29 H072         1.6300    -0.8910     1.9500 hc         1 UL7       0.022200
     30 H02         -7.9800    -2.7170    -3.9420 ha         1 UL7       0.127000
     31 H3          -4.0320    -4.2710    -4.4420 ha         1 UL7       0.122000
     32 H21C        -2.5580    -1.0810    -5.2490 h1         1 UL7       0.014700
     33 H22C        -2.2660    -2.8060    -4.9930 h1         1 UL7       0.014700
     34 H031        -0.3160    -0.8100    -3.9980 h1         1 UL7       0.017200
     35 H032        -0.3150    -2.5690    -3.7880 h1         1 UL7       0.017200
     36 H161        -3.6820    -0.3540    -2.7130 h1         1 UL7       0.017200
     37 H162        -2.2600     0.4690    -3.3770 h1         1 UL7       0.017200
     38 H1          -5.0290     0.7060    -4.9830 ho         1 UL7       0.405000
     39 H81C        -0.3600    -2.2810    -1.3390 hc         1 UL7       0.030200
     40 H82C         1.0390    -1.4480    -2.0400 hc         1 UL7       0.030200
     41 H051        -0.4580     2.1390     2.5840 hc         1 UL7       0.022200
     42 H052        -0.4600     0.3670     2.6270 hc         1 UL7       0.022200
     43 H06          1.7720     1.2180     3.2020 h1         1 UL7      -0.005300
     44 H            2.4550     2.9190     2.1490 ho         1 UL7       0.386000
     45 H151        -2.4060     0.8150    -0.9400 hc         1 UL7       0.030200
     46 H152        -2.4030    -0.9390    -0.6870 hc         1 UL7       0.030200
     47 O1          -4.5620     0.2110    -4.3290 oh         1 UL7      -0.481100
@<TRIPOS>BOND
     1     1     2 1   
     2     1    10 1   
     3     1    17 1   
     4     2    15 1   
     5     2    23 1   
     6     2    24 1   
     7     3     6 ar  
     8     3     9 ar  
     9     3    20 1   
    10     4     7 1   
    11     4     9 ar  
    12     4    16 ar  
    13     5     7 1   
    14     5     8 1   
    15     5    19 1   
    16     6    11 ar  
    17     6    30 1   
    18     7    32 1   
    19     7    33 1   
    20     8    22 1   
    21     8    34 1   
    22     8    35 1   
    23     9    31 1   
    24    10    12 1   
    25    10    25 1   
    26    10    26 1   
    27    11    16 ar  
    28    11    21 1   
    29    12    13 1   
    30    12    41 1   
    31    12    42 1   
    32    13    14 1   
    33    13    15 1   
    34    13    43 1   
    35    14    44 1   
    36    15    28 1   
    37    15    29 1   
    38    16    47 1   
    39    17    18 1   
    40    17    22 1   
    41    17    27 1   
    42    18    19 1   
    43    18    45 1   
    44    18    46 1   
    45    19    36 1   
    46    19    37 1   
    47    22    39 1   
    48    22    40 1   
    49    38    47 1   
@<TRIPOS>SUBSTRUCTURE
     1 UL7         1 TEMP              0 ****  ****    0 ROOT
