@<TRIPOS>MOLECULE
molecule
   35    37     1     0     0
SMALL
bcc


@<TRIPOS>ATOM
      1 F7'          0.0000     0.0000     0.0000 f          1 ULF      -0.255300
      2 C6'          1.3990     0.0000     0.0000 c3         1 ULF       0.160600
      3 C8'          1.9420     0.0000     1.4480 c3         1 ULF      -0.106400
      4 C2'          1.9470     1.3320    -0.6060 c3         1 ULF      -0.179700
      5 C3'          3.3570     1.3990     0.0880 c3         1 ULF       0.092100
      6 O3'          4.1790     0.2780    -0.2450 oh         1 ULF      -0.576800
      7 C1'          1.2030     2.4390     0.2050 c3         1 ULF       0.299500
      8 O4'          1.7680     2.3920     1.5290 os         1 ULF      -0.379600
      9 C4'          2.7850     1.3090     1.5460 c3         1 ULF       0.157800
     10 C5'          3.8060     1.3540     2.6840 c3         1 ULF       0.249400
     11 O5'          3.1440     1.1260     3.9290 os         1 ULF      -0.560200
     12 P            3.9140     1.1050     5.3410 p5         1 ULF       1.163900
     13 OP2          2.8850     0.6920     6.5090 o          1 ULF      -0.899833
     14 OP1          5.0180     0.1210     5.2880 o          1 ULF      -0.899833
     15 N1           1.4340     3.7520    -0.4000 n          1 ULF      -0.365000
     16 C6           2.4440     4.5470     0.0700 cc         1 ULF       0.075600
     17 C5           2.6580     5.7570    -0.4880 cd         1 ULF      -0.372200
     18 C4           1.8280     6.1800    -1.5540 c          1 ULF       0.709700
     19 O4           2.0020     7.2670    -2.0740 o          1 ULF      -0.663500
     20 N3           0.8440     5.3680    -1.9890 ns         1 ULF      -0.568500
     21 C2           0.6570     4.1630    -1.4180 c          1 ULF       0.807500
     22 O2          -0.2320     3.4400    -1.8240 o          1 ULF      -0.670500
     23 H1           1.7800    -0.8520    -0.5490 h1         1 ULF       0.059700
     24 H2           2.5690    -0.8670     1.6170 hc         1 ULF       0.093200
     25 H3           1.1250     0.0220     2.1590 hc         1 ULF       0.093200
     26 H4           1.9340     1.4220    -1.6850 hc         1 ULF       0.081700
     27 H5           3.8530     2.3440    -0.0950 h1         1 ULF       0.044700
     28 H6           4.8810     0.5590    -0.8080 ho         1 ULF       0.392000
     29 H7           0.1420     2.2250     0.2440 h2         1 ULF       0.118700
     30 H8           4.2830     2.3270     2.7020 h1         1 ULF       0.033700
     31 H9           4.5550     0.5880     2.5270 h1         1 ULF       0.033700
     32 H12          3.0690     4.2060     0.8870 h4         1 ULF       0.207000
     33 H13          3.4540     6.3960    -0.1260 ha         1 ULF       0.176000
     34 H14          0.2540     5.6590    -2.7440 hn         1 ULF       0.346500
     35 OP3          4.5130     2.5670     5.6480 o          1 ULF      -0.899833
@<TRIPOS>BOND
     1    14    12 1
     2     3     9 1
     3     3     2 1
     4    10     9 1
     5    10    11 1
     6    12    11 1
     7    12    13 1
     8     9     8 1
     9     9     5 1
    10     1     2 1
    11     8     7 1
    12     2     4 1
    13     6     5 1
    14     5     4 1
    15     7     4 1
    16     7    15 1
    17    15    16 1
    18    15    21 1
    19    16    17 2
    20    22    21 2
    21    21    20 1
    22    17    18 1
    23    20    18 1
    24    18    19 2
    25     2    23 1
    26     3    24 1
    27     3    25 1
    28     4    26 1
    29     5    27 1
    30     6    28 1
    31     7    29 1
    32    10    30 1
    33    10    31 1
    34    16    32 1
    35    17    33 1
    36    20    34 1
    37    12    35 1
@<TRIPOS>SUBSTRUCTURE
     1 ULF         1 TEMP              0 ****  ****    0 ROOT
