@<TRIPOS>MOLECULE
molecule
  122   121     1     0     0
SMALL
bcc


@<TRIPOS>ATOM
      1 CAA          0.0000     0.0000     0.0000 c3         1 ULI      -0.092100
      2 CAB          1.5300     0.0000     0.0000 c3         1 ULI      -0.084400
      3 CAC          2.0410     0.0000     1.4420 c3         1 ULI      -0.081400
      4 CAD          3.5710     0.0010     1.4410 c3         1 ULI      -0.082400
      5 CAE          4.0810    -0.0000     2.8830 c3         1 ULI      -0.081900
      6 CAF          5.6120     0.0010     2.8820 c3         1 ULI      -0.082400
      7 CAG          6.1230     0.0010     4.3240 c3         1 ULI      -0.082400
      8 CAH          7.6530     0.0010     4.3230 c3         1 ULI      -0.081900
      9 CAI          8.1630     0.0010     5.7660 c3         1 ULI      -0.081900
     10 CAJ          9.6940     0.0020     5.7650 c3         1 ULI      -0.082400
     11 CAK         10.2050     0.0010     7.2070 c3         1 ULI      -0.081900
     12 CAL         11.7340     0.0020     7.2060 c3         1 ULI      -0.082400
     13 CAM         12.2450     0.0020     8.6480 c3         1 ULI      -0.082400
     14 CAN         13.7750     0.0020     8.6470 c3         1 ULI      -0.081900
     15 CAO         14.2860     0.0020    10.0900 c3         1 ULI      -0.082400
     16 CAP         15.8160     0.0030    10.0890 c3         1 ULI      -0.082400
     17 CAQ         16.3270     0.0020    11.5310 c3         1 ULI      -0.081900
     18 CAR         17.8570     0.0030    11.5300 c3         1 ULI      -0.082400
     19 CAS         18.3670     0.0020    12.9720 c3         1 ULI      -0.082400
     20 CAT         19.8980     0.0030    12.9710 c3         1 ULI      -0.082400
     21 CAU         20.4090     0.0030    14.4130 c3         1 ULI      -0.082400
     22 CAV         21.9390     0.0040    14.4120 c3         1 ULI      -0.082400
     23 CAW         22.4490     0.0030    15.8550 c3         1 ULI      -0.082400
     24 CAX         38.7760     0.0070    27.3840 c3         1 ULI      -0.084400
     25 CAY         38.2650     0.0070    25.9430 c3         1 ULI      -0.081400
     26 CAZ         36.7350     0.0060    25.9440 c3         1 ULI      -0.082400
     27 CBA         36.2250     0.0070    24.5010 c3         1 ULI      -0.081900
     28 CBB         34.6940     0.0060    24.5020 c3         1 ULI      -0.082400
     29 CBC         34.1830     0.0060    23.0600 c3         1 ULI      -0.082400
     30 CBD         32.6540     0.0050    23.0610 c3         1 ULI      -0.081900
     31 CBE         32.1430     0.0060    21.6190 c3         1 ULI      -0.081900
     32 CBF         30.6130     0.0040    21.6190 c3         1 ULI      -0.082400
     33 CBG         30.1010     0.0050    20.1780 c3         1 ULI      -0.081900
     34 CBH         28.5720     0.0040    20.1790 c3         1 ULI      -0.082400
     35 CBI         28.0610     0.0040    18.7360 c3         1 ULI      -0.082400
     36 CBJ         26.5310     0.0040    18.7370 c3         1 ULI      -0.081900
     37 CBK         26.0200     0.0040    17.2940 c3         1 ULI      -0.082400
     38 CBL         24.4900     0.0030    17.2960 c3         1 ULI      -0.082400
     39 CBM         23.9790     0.0040    15.8540 c3         1 ULI      -0.081900
     40 HAA         -0.3610    -0.8840     0.5110 hc         1 ULI       0.032367
     41 HAAA        -0.3610     0.8850     0.5100 hc         1 ULI       0.032367
     42 HAAB        -0.3610    -0.0000    -1.0210 hc         1 ULI       0.032367
     43 HAB          1.8910     0.8840    -0.5110 hc         1 ULI       0.039700
     44 HABA         1.8910    -0.8840    -0.5110 hc         1 ULI       0.039700
     45 HAC          1.6810    -0.8850     1.9530 hc         1 ULI       0.040700
     46 HACA         1.6800     0.8840     1.9530 hc         1 ULI       0.040700
     47 HAD          3.9320    -0.8830     0.9290 hc         1 ULI       0.040700
     48 HADA         3.9310     0.8860     0.9310 hc         1 ULI       0.040700
     49 HAE          3.7200     0.8840     3.3950 hc         1 ULI       0.040700
     50 HAEA         3.7210    -0.8850     3.3930 hc         1 ULI       0.040700
     51 HAF          5.9730    -0.8830     2.3710 hc         1 ULI       0.040700
     52 HAFA         5.9720     0.8860     2.3720 hc         1 ULI       0.040700
     53 HAG          5.7620     0.8860     4.8350 hc         1 ULI       0.040700
     54 HAGA         5.7620    -0.8830     4.8350 hc         1 ULI       0.040700
     55 HAH          8.0130    -0.8830     3.8120 hc         1 ULI       0.040700
     56 HAHA         8.0130     0.8860     3.8120 hc         1 ULI       0.040700
     57 HAI          7.8020     0.8850     6.2770 hc         1 ULI       0.040700
     58 HAIA         7.8030    -0.8840     6.2760 hc         1 ULI       0.040700
     59 HAJ         10.0550    -0.8820     5.2530 hc         1 ULI       0.040700
     60 HAJA        10.0540     0.8870     5.2550 hc         1 ULI       0.040700
     61 HAK          9.8430     0.8850     7.7190 hc         1 ULI       0.040700
     62 HAKA         9.8450    -0.8840     7.7170 hc         1 ULI       0.040700
     63 HAL         12.0950     0.8870     6.6950 hc         1 ULI       0.040700
     64 HALA        12.0960    -0.8820     6.6940 hc         1 ULI       0.040700
     65 HAM         11.8840    -0.8820     9.1590 hc         1 ULI       0.040700
     66 HAMA        11.8840     0.8870     9.1590 hc         1 ULI       0.040700
     67 HAN         14.1360     0.8870     8.1370 hc         1 ULI       0.040700
     68 HANA        14.1360    -0.8820     8.1370 hc         1 ULI       0.040700
     69 HAO         13.9260    -0.8830    10.6010 hc         1 ULI       0.040700
     70 HAOA        13.9250     0.8860    10.6010 hc         1 ULI       0.040700
     71 HAP         16.1760     0.8880     9.5790 hc         1 ULI       0.040700
     72 HAPA        16.1770    -0.8810     9.5770 hc         1 ULI       0.040700
     73 HAQ         15.9650     0.8860    12.0420 hc         1 ULI       0.040700
     74 HAQA        15.9670    -0.8830    12.0410 hc         1 ULI       0.040700
     75 HAR         18.2180     0.8890    11.0200 hc         1 ULI       0.040700
     76 HARA        18.2190    -0.8800    11.0180 hc         1 ULI       0.040700
     77 HAS         18.0070    -0.8830    13.4820 hc         1 ULI       0.040700
     78 HASA        18.0050     0.8860    13.4840 hc         1 ULI       0.040700
     79 HAT         20.2590    -0.8810    12.4600 hc         1 ULI       0.040700
     80 HATA        20.2580     0.8880    12.4610 hc         1 ULI       0.040700
     81 HAU         20.0480    -0.8820    14.9240 hc         1 ULI       0.040700
     82 HAUA        20.0470     0.8870    14.9240 hc         1 ULI       0.040700
     83 HAV         22.3010    -0.8790    13.9010 hc         1 ULI       0.040700
     84 HAVA        22.2990     0.8900    13.9030 hc         1 ULI       0.040700
     85 HAW         22.0870     0.8870    16.3660 hc         1 ULI       0.040700
     86 HAWA        22.0880    -0.8820    16.3640 hc         1 ULI       0.040700
     87 HAX         38.4150     0.8910    27.8950 hc         1 ULI       0.039700
     88 HAXA        38.4150    -0.8780    27.8950 hc         1 ULI       0.039700
     89 HAY         38.6250     0.8920    25.4320 hc         1 ULI       0.040700
     90 HAZ         36.3740     0.8890    26.4560 hc         1 ULI       0.040700
     91 HAZA        36.3750    -0.8800    26.4540 hc         1 ULI       0.040700
     92 HBA         36.5860    -0.8770    23.9900 hc         1 ULI       0.040700
     93 HBAA        36.5850     0.8920    23.9910 hc         1 ULI       0.040700
     94 HBB         34.3340    -0.8790    25.0130 hc         1 ULI       0.040700
     95 HBBA        34.3330     0.8900    25.0130 hc         1 ULI       0.040700
     96 HBC         34.5440    -0.8790    22.5490 hc         1 ULI       0.040700
     97 HBCA        34.5440     0.8900    22.5490 hc         1 ULI       0.040700
     98 HBD         32.2930     0.8900    23.5720 hc         1 ULI       0.040700
     99 HBDA        32.2930    -0.8790    23.5720 hc         1 ULI       0.040700
    100 HBE         32.5050    -0.8790    21.1080 hc         1 ULI       0.040700
    101 HBEA        32.5030     0.8900    21.1080 hc         1 ULI       0.040700
    102 HBF         30.2520    -0.8810    22.1300 hc         1 ULI       0.040700
    103 HBFA        30.2510     0.8880    22.1310 hc         1 ULI       0.040700
    104 HBG         30.4630    -0.8780    19.6660 hc         1 ULI       0.040700
    105 HBGA        30.4610     0.8910    19.6670 hc         1 ULI       0.040700
    106 HBH         28.2120    -0.8810    20.6900 hc         1 ULI       0.040700
    107 HBHA        28.2100     0.8890    20.6900 hc         1 ULI       0.040700
    108 HBI         28.4220     0.8890    18.2250 hc         1 ULI       0.040700
    109 HBIA        28.4220    -0.8800    18.2250 hc         1 ULI       0.040700
    110 HBJ         26.1700    -0.8800    19.2480 hc         1 ULI       0.040700
    111 HBJA        26.1700     0.8890    19.2480 hc         1 ULI       0.040700
    112 HBK         26.3800     0.8890    16.7840 hc         1 ULI       0.040700
    113 HBKA        26.3820    -0.8800    16.7830 hc         1 ULI       0.040700
    114 HBL         24.1300    -0.8820    17.8060 hc         1 ULI       0.040700
    115 HBLA        24.1290     0.8870    17.8070 hc         1 ULI       0.040700
    116 HBM         24.3410    -0.8790    15.3420 hc         1 ULI       0.040700
    117 HBMA        24.3400     0.8900    15.3440 hc         1 ULI       0.040700
    118 C40         40.3060     0.0070    27.3840 c3         1 ULI      -0.092100
    119 H79         38.6260    -0.8780    25.4310 hc         1 ULI       0.040700
    120 H80         40.6670    -0.8780    26.8740 hc         1 ULI       0.032367
    121 H81         40.6670     0.8910    26.8740 hc         1 ULI       0.032367
    122 H82         40.6670     0.0070    28.4060 hc         1 ULI       0.032367
@<TRIPOS>BOND
     1     1     2 1
     2     1    40 1
     3     1    41 1
     4     1    42 1
     5     2     3 1
     6     2    43 1
     7     2    44 1
     8     3    45 1
     9     3    46 1
    10     4     3 1
    11     4     5 1
    12     4    47 1
    13     4    48 1
    14     5    49 1
    15     5    50 1
    16     6     5 1
    17     6     7 1
    18     6    51 1
    19     6    52 1
    20     7     8 1
    21     7    53 1
    22     7    54 1
    23     8     9 1
    24     8    55 1
    25     8    56 1
    26     9    10 1
    27     9    57 1
    28     9    58 1
    29    10    11 1
    30    10    59 1
    31    10    60 1
    32    11    12 1
    33    11    61 1
    34    11    62 1
    35    12    13 1
    36    12    63 1
    37    12    64 1
    38    13    14 1
    39    13    65 1
    40    13    66 1
    41    14    15 1
    42    14    67 1
    43    14    68 1
    44    15    16 1
    45    15    69 1
    46    15    70 1
    47    16    17 1
    48    16    71 1
    49    16    72 1
    50    17    18 1
    51    17    73 1
    52    17    74 1
    53    18    19 1
    54    18    75 1
    55    18    76 1
    56    19    20 1
    57    19    77 1
    58    19    78 1
    59    20    21 1
    60    20    79 1
    61    20    80 1
    62    21    22 1
    63    21    81 1
    64    21    82 1
    65    22    23 1
    66    22    83 1
    67    22    84 1
    68    23    39 1
    69    23    85 1
    70    23    86 1
    71    24    25 1
    72    24    87 1
    73    24    88 1
    74    25    26 1
    75    25    89 1
    76    26    27 1
    77    26    90 1
    78    26    91 1
    79    27    92 1
    80    27    93 1
    81    28    27 1
    82    28    29 1
    83    28    94 1
    84    28    95 1
    85    29    96 1
    86    29    97 1
    87    30    29 1
    88    30    31 1
    89    30    98 1
    90    30    99 1
    91    31   100 1
    92    31   101 1
    93    32    31 1
    94    32    33 1
    95    32   102 1
    96    32   103 1
    97    33   104 1
    98    33   105 1
    99    34    33 1
   100    34    35 1
   101    34   106 1
   102    34   107 1
   103    35   108 1
   104    35   109 1
   105    36    35 1
   106    36   110 1
   107    36   111 1
   108    37    36 1
   109    37   112 1
   110    37   113 1
   111    38    37 1
   112    38   114 1
   113    38   115 1
   114    39    38 1
   115    39   116 1
   116    39   117 1
   117    24   118 1
   118    25   119 1
   119   118   120 1
   120   118   121 1
   121   118   122 1
@<TRIPOS>SUBSTRUCTURE
     1 ULI         1 TEMP              0 ****  ****    0 ROOT
