@<TRIPOS>MOLECULE
ULI
  122   121     1     0     0
SMALL
bcc


@<TRIPOS>ATOM
      1 CAA         0.0050   -0.0000   -0.0150 c3        1 ULI     -0.092100
      2 CAB         1.5110    0.0000    0.0120 c3        1 ULI     -0.080400
      3 CAC         2.0420    0.0000    1.4300 c3        1 ULI     -0.079400
      4 CAD         3.5550    0.0010    1.4520 c3        1 ULI     -0.079400
      5 CAE         4.0840    0.0010    2.8700 c3        1 ULI     -0.079400
      6 CAF         5.5980    0.0010    2.8930 c3        1 ULI     -0.079400
      7 CAG         6.1260    0.0010    4.3110 c3        1 ULI     -0.079400
      8 CAH         7.6400    0.0010    4.3330 c3        1 ULI     -0.079400
      9 CAI         8.1680    0.0010    5.7520 c3        1 ULI     -0.079400
     10 CAJ         9.6820    0.0020    5.7740 c3        1 ULI     -0.079400
     11 CAK        10.2100    0.0020    7.1920 c3        1 ULI     -0.079400
     12 CAL        11.7240    0.0020    7.2150 c3        1 ULI     -0.079400
     13 CAM        12.2520    0.0020    8.6340 c3        1 ULI     -0.079400
     14 CAN        13.7650    0.0030    8.6570 c3        1 ULI     -0.079400
     15 CAO        14.2930    0.0020   10.0750 c3        1 ULI     -0.079400
     16 CAP        15.8070    0.0030   10.0980 c3        1 ULI     -0.079400
     17 CAQ        16.3350    0.0020   11.5170 c3        1 ULI     -0.079400
     18 CAR        17.8480    0.0030   11.5410 c3        1 ULI     -0.079400
     19 CAS        18.3760    0.0030   12.9590 c3        1 ULI     -0.079400
     20 CAT        19.8890    0.0040   12.9830 c3        1 ULI     -0.079400
     21 CAU        20.4170    0.0030   14.4020 c3        1 ULI     -0.079400
     22 CAV        21.9300    0.0040   14.4250 c3        1 ULI     -0.079400
     23 CAW        22.4580    0.0030   15.8440 c3        1 ULI     -0.079400
     24 CAX        38.7950    0.0060   27.3720 c3        1 ULI     -0.080400
     25 CAY        38.2640    0.0070   25.9540 c3        1 ULI     -0.079400
     26 CAZ        36.7510    0.0060   25.9320 c3        1 ULI     -0.079400
     27 CBA        36.2220    0.0060   24.5140 c3        1 ULI     -0.079400
     28 CBB        34.7090    0.0060   24.4920 c3        1 ULI     -0.079400
     29 CBC        34.1800    0.0060   23.0730 c3        1 ULI     -0.079400
     30 CBD        32.6660    0.0050   23.0510 c3        1 ULI     -0.079400
     31 CBE        32.1380    0.0050   21.6330 c3        1 ULI     -0.079400
     32 CBF        30.6240    0.0050   21.6100 c3        1 ULI     -0.079400
     33 CBG        30.0960    0.0050   20.1920 c3        1 ULI     -0.079400
     34 CBH        28.5820    0.0040   20.1690 c3        1 ULI     -0.079400
     35 CBI        28.0540    0.0050   18.7510 c3        1 ULI     -0.079400
     36 CBJ        26.5410    0.0040   18.7280 c3        1 ULI     -0.079400
     37 CBK        26.0130    0.0040   17.3090 c3        1 ULI     -0.079400
     38 CBL        24.4990    0.0040   17.2860 c3        1 ULI     -0.079400
     39 CBM        23.9710    0.0040   15.8670 c3        1 ULI     -0.079400
     40 HAA        -0.3990   -0.9050    0.5000 hc        1 ULI      0.032700
     41 HAAA       -0.3990    0.9040    0.5000 hc        1 ULI      0.032700
     42 HAAB       -0.3650    0.0000   -1.0690 hc        1 ULI      0.032700
     43 HAB         1.8980    0.9030   -0.5310 hc        1 ULI      0.038700
     44 HABA        1.8980   -0.9020   -0.5320 hc        1 ULI      0.038700
     45 HAC         1.6570   -0.9020    1.9740 hc        1 ULI      0.039700
     46 HACA        1.6570    0.9020    1.9750 hc        1 ULI      0.039700
     47 HAD         3.9390    0.9030    0.9080 hc        1 ULI      0.039700
     48 HADA        3.9390   -0.9020    0.9070 hc        1 ULI      0.039700
     49 HAE         3.7000   -0.9020    3.4150 hc        1 ULI      0.039700
     50 HAEA        3.7000    0.9030    3.4150 hc        1 ULI      0.039700
     51 HAF         5.9810    0.9040    2.3480 hc        1 ULI      0.039700
     52 HAFA        5.9820   -0.9010    2.3480 hc        1 ULI      0.039700
     53 HAG         5.7420   -0.9020    4.8550 hc        1 ULI      0.039700
     54 HAGA        5.7420    0.9030    4.8560 hc        1 ULI      0.039700
     55 HAH         8.0240    0.9040    3.7890 hc        1 ULI      0.039700
     56 HAHA        8.0240   -0.9010    3.7880 hc        1 ULI      0.039700
     57 HAI         7.7840    0.9030    6.2960 hc        1 ULI      0.039700
     58 HAIA        7.7850   -0.9020    6.2960 hc        1 ULI      0.039700
     59 HAJ        10.0660    0.9050    5.2300 hc        1 ULI      0.039700
     60 HAJA       10.0660   -0.9000    5.2290 hc        1 ULI      0.039700
     61 HAK         9.8260   -0.9010    7.7370 hc        1 ULI      0.039700
     62 HAKA        9.8260    0.9040    7.7370 hc        1 ULI      0.039700
     63 HAL        12.1090   -0.9000    6.6700 hc        1 ULI      0.039700
     64 HALA       12.1080    0.9050    6.6710 hc        1 ULI      0.039700
     65 HAM        11.8680   -0.9010    9.1780 hc        1 ULI      0.039700
     66 HAMA       11.8670    0.9040    9.1790 hc        1 ULI      0.039700
     67 HAN        14.1500   -0.9000    8.1120 hc        1 ULI      0.039700
     68 HANA       14.1490    0.9060    8.1130 hc        1 ULI      0.039700
     69 HAO        13.9090    0.9040   10.6200 hc        1 ULI      0.039700
     70 HAOA       13.9100   -0.9010   10.6190 hc        1 ULI      0.039700
     71 HAP        16.1910    0.9060    9.5550 hc        1 ULI      0.039700
     72 HAPA       16.1920   -0.8990    9.5540 hc        1 ULI      0.039700
     73 HAQ        15.9500    0.9040   12.0620 hc        1 ULI      0.039700
     74 HAQA       15.9510   -0.9010   12.0610 hc        1 ULI      0.039700
     75 HAR        18.2320    0.9060   10.9970 hc        1 ULI      0.039700
     76 HARA       18.2330   -0.8990   10.9960 hc        1 ULI      0.039700
     77 HAS        17.9910    0.9040   13.5040 hc        1 ULI      0.039700
     78 HASA       17.9920   -0.9010   13.5030 hc        1 ULI      0.039700
     79 HAT        20.2730    0.9070   12.4390 hc        1 ULI      0.039700
     80 HATA       20.2740   -0.8980   12.4380 hc        1 ULI      0.039700
     81 HAU        20.0330   -0.9000   14.9450 hc        1 ULI      0.039700
     82 HAUA       20.0320    0.9050   14.9470 hc        1 ULI      0.039700
     83 HAV        22.3160   -0.8980   13.8800 hc        1 ULI      0.039700
     84 HAVA       22.3140    0.9070   13.8820 hc        1 ULI      0.039700
     85 HAW        22.0740   -0.9000   16.3870 hc        1 ULI      0.039700
     86 HAWA       22.0730    0.9050   16.3890 hc        1 ULI      0.039700
     87 HAX        38.4080    0.9090   27.9160 hc        1 ULI      0.038700
     88 HAXA       38.4080   -0.8960   27.9160 hc        1 ULI      0.038700
     89 HAY        38.6490    0.9090   25.4100 hc        1 ULI      0.039700
     90 HAZ        36.3670   -0.8970   26.4770 hc        1 ULI      0.039700
     91 HAZA       36.3670    0.9080   26.4770 hc        1 ULI      0.039700
     92 HBA        36.6060    0.9090   23.9700 hc        1 ULI      0.039700
     93 HBAA       36.6070   -0.8960   23.9690 hc        1 ULI      0.039700
     94 HBB        34.3240    0.9080   25.0370 hc        1 ULI      0.039700
     95 HBBA       34.3250   -0.8970   25.0360 hc        1 ULI      0.039700
     96 HBC        34.5630    0.9090   22.5290 hc        1 ULI      0.039700
     97 HBCA       34.5650   -0.8960   22.5290 hc        1 ULI      0.039700
     98 HBD        32.2830   -0.8980   23.5950 hc        1 ULI      0.039700
     99 HBDA       32.2820    0.9070   23.5960 hc        1 ULI      0.039700
    100 HBE        32.5220    0.9080   21.0890 hc        1 ULI      0.039700
    101 HBEA       32.5220   -0.8970   21.0880 hc        1 ULI      0.039700
    102 HBF        30.2400    0.9070   22.1550 hc        1 ULI      0.039700
    103 HBFA       30.2400   -0.8980   22.1540 hc        1 ULI      0.039700
    104 HBG        30.4800   -0.8970   19.6470 hc        1 ULI      0.039700
    105 HBGA       30.4800    0.9080   19.6480 hc        1 ULI      0.039700
    106 HBH        28.1980    0.9060   20.7140 hc        1 ULI      0.039700
    107 HBHA       28.1980   -0.8990   20.7130 hc        1 ULI      0.039700
    108 HBI        28.4380    0.9080   18.2070 hc        1 ULI      0.039700
    109 HBIA       28.4390   -0.8970   18.2060 hc        1 ULI      0.039700
    110 HBJ        26.1560    0.9060   19.2730 hc        1 ULI      0.039700
    111 HBJA       26.1570   -0.8990   19.2720 hc        1 ULI      0.039700
    112 HBK        26.3960    0.9080   16.7650 hc        1 ULI      0.039700
    113 HBKA       26.3980   -0.8980   16.7640 hc        1 ULI      0.039700
    114 HBL        24.1140    0.9050   17.8310 hc        1 ULI      0.039700
    115 HBLA       24.1150   -0.9000   17.8300 hc        1 ULI      0.039700
    116 HBM        24.3570   -0.8980   15.3220 hc        1 ULI      0.039700
    117 HBMA       24.3550    0.9070   15.3240 hc        1 ULI      0.039700
    118 C40        40.3010    0.0070   27.4000 c3        1 ULI     -0.092100
    119 H79        38.6490   -0.8960   25.4100 hc        1 ULI      0.039700
    120 H80        40.6710    0.0070   28.4530 hc        1 ULI      0.032700
    121 H81        40.7060   -0.8980   26.8840 hc        1 ULI      0.032700
    122 H82        40.7050    0.9120   26.8840 hc        1 ULI      0.032700
@<TRIPOS>BOND
     1    1    2 1   
     2    1   40 1   
     3    1   41 1   
     4    1   42 1   
     5    2    3 1   
     6    2   43 1   
     7    2   44 1   
     8    3    4 1   
     9    3   45 1   
    10    3   46 1   
    11    4    5 1   
    12    4   47 1   
    13    4   48 1   
    14    5    6 1   
    15    5   49 1   
    16    5   50 1   
    17    6    7 1   
    18    6   51 1   
    19    6   52 1   
    20    7    8 1   
    21    7   53 1   
    22    7   54 1   
    23    8    9 1   
    24    8   55 1   
    25    8   56 1   
    26    9   10 1   
    27    9   57 1   
    28    9   58 1   
    29   10   11 1   
    30   10   59 1   
    31   10   60 1   
    32   11   12 1   
    33   11   61 1   
    34   11   62 1   
    35   12   13 1   
    36   12   63 1   
    37   12   64 1   
    38   13   14 1   
    39   13   65 1   
    40   13   66 1   
    41   14   15 1   
    42   14   67 1   
    43   14   68 1   
    44   15   16 1   
    45   15   69 1   
    46   15   70 1   
    47   16   17 1   
    48   16   71 1   
    49   16   72 1   
    50   17   18 1   
    51   17   73 1   
    52   17   74 1   
    53   18   19 1   
    54   18   75 1   
    55   18   76 1   
    56   19   20 1   
    57   19   77 1   
    58   19   78 1   
    59   20   21 1   
    60   20   79 1   
    61   20   80 1   
    62   21   22 1   
    63   21   81 1   
    64   21   82 1   
    65   22   23 1   
    66   22   83 1   
    67   22   84 1   
    68   23   39 1   
    69   23   85 1   
    70   23   86 1   
    71   24   25 1   
    72   24   87 1   
    73   24   88 1   
    74   24  118 1   
    75   25   26 1   
    76   25   89 1   
    77   25  119 1   
    78   26   27 1   
    79   26   90 1   
    80   26   91 1   
    81   27   28 1   
    82   27   92 1   
    83   27   93 1   
    84   28   29 1   
    85   28   94 1   
    86   28   95 1   
    87   29   30 1   
    88   29   96 1   
    89   29   97 1   
    90   30   31 1   
    91   30   98 1   
    92   30   99 1   
    93   31   32 1   
    94   31  100 1   
    95   31  101 1   
    96   32   33 1   
    97   32  102 1   
    98   32  103 1   
    99   33   34 1   
   100   33  104 1   
   101   33  105 1   
   102   34   35 1   
   103   34  106 1   
   104   34  107 1   
   105   35   36 1   
   106   35  108 1   
   107   35  109 1   
   108   36   37 1   
   109   36  110 1   
   110   36  111 1   
   111   37   38 1   
   112   37  112 1   
   113   37  113 1   
   114   38   39 1   
   115   38  114 1   
   116   38  115 1   
   117   39  116 1   
   118   39  117 1   
   119  118  120 1   
   120  118  121 1   
   121  118  122 1   
@<TRIPOS>SUBSTRUCTURE
     1 ULI         1 TEMP              0 ****  ****    0 ROOT
