@<TRIPOS>MOLECULE
molecule
   48    48     1     0     0
SMALL
bcc


@<TRIPOS>ATOM
      1 O1           0.0000     0.0000     0.0000 oh         1 UM0      -0.626800
      2 C1           1.4290     0.0000     0.0000 c3         1 UM0       0.316900
      3 C2           1.9400     0.0000     1.4430 c3         1 UM0       0.080700
      4 N2           1.4040    -1.1650     2.1520 ns         1 UM0      -0.571900
      5 CBC          2.0520    -2.3460     2.0940 c          1 UM0       0.665100
      6 CBE          1.5010    -3.5430     2.8230 c3         1 UM0      -0.167100
      7 OBD          3.0790    -2.4430     1.4560 o          1 UM0      -0.627100
      8 O5           1.9060     1.1670    -0.6730 os         1 UM0      -0.422600
      9 C5           1.4640     2.3960    -0.0930 c3         1 UM0       0.133100
     10 C6           2.0090     3.5710    -0.9080 c3         1 UM0       0.148400
     11 O6           1.4400     3.5450    -2.2180 oh         1 UM0      -0.600800
     12 C4           1.9760     2.4930     1.3460 c3         1 UM0       0.122100
     13 O4           1.4880     3.6940     1.9480 oh         1 UM0      -0.595800
     14 C3           1.4760     1.2830     2.1410 c3         1 UM0       0.127100
     15 O3           2.0090     1.3250     3.4660 os         1 UM0      -0.379600
     16 CBN          1.0850     0.9260     4.4780 c3         1 UM0       0.067100
     17 CBQ          0.2860     2.1440     4.9490 c3         1 UM0      -0.117100
     18 CBO          1.8370     0.3380     5.6440 c          1 UM0       0.642100
     19 OBP          3.0500     0.3510     5.6510 o          1 UM0      -0.612100
     20 N            1.1630    -0.2000     6.6790 ns         1 UM0      -0.548900
     21 CBA          1.8950    -0.7720     7.8120 c3         1 UM0       0.003700
     22 CBB          2.2420     0.3380     8.8060 c3         1 UM0      -0.083100
     23 C            1.0390    -1.8070     8.4940 c          1 UM0       0.887600
     24 O           -0.0710    -2.0430     8.0760 o          1 UM0      -0.843800
     25 OXT          1.5070    -2.4660     9.5650 o          1 UM0      -0.843800
     26 HO1         -0.3140    -0.4520    -0.7650 ho         1 UM0       0.410000
     27 H1           1.7950    -0.8830    -0.5100 h2         1 UM0       0.087700
     28 H2           3.0230    -0.0370     1.4410 h1         1 UM0       0.111700
     29 HN2          0.5580    -1.0830     2.6790 hn         1 UM0       0.324500
     30 HBE          0.4620    -3.3670     3.0740 hc         1 UM0       0.064700
     31 HBEA         1.5760    -4.4180     2.1890 hc         1 UM0       0.064700
     32 HBEB         2.0680    -3.7060     3.7320 hc         1 UM0       0.064700
     33 H5           0.3810     2.4230    -0.0910 h1         1 UM0       0.076700
     34 H6           1.7490     4.5020    -0.4190 h1         1 UM0       0.029700
     35 H6A          3.0870     3.4910    -0.9810 h1         1 UM0       0.029700
     36 HO6          1.8040     4.2460    -2.7330 ho         1 UM0       0.396000
     37 H4           3.0590     2.4980     1.3430 h1         1 UM0       0.056700
     38 HO4          2.2070     4.2850     2.0960 ho         1 UM0       0.405000
     39 H3           0.3930     1.3000     2.1800 h1         1 UM0       0.065700
     40 HBN          0.4060     0.1840     4.0750 h1         1 UM0       0.035700
     41 HBQ         -0.6380     2.2090     4.3870 hc         1 UM0       0.046700
     42 HBQA         0.0610     2.0420     6.0040 hc         1 UM0       0.046700
     43 HBQB         0.8700     3.0420     4.7890 hc         1 UM0       0.046700
     44 HN           0.1630    -0.2290     6.6650 hn         1 UM0       0.324500
     45 HBA          2.8070    -1.2360     7.4550 h1         1 UM0       0.073700
     46 HBB          1.8860     1.2880     8.4270 hc         1 UM0       0.029033
     47 HBBA         3.3170     0.3830     8.9380 hc         1 UM0       0.029033
     48 HBBB         1.7710     0.1300     9.7590 hc         1 UM0       0.029033
@<TRIPOS>BOND
     1     1     2 1
     2     2     3 1
     3     2     8 1
     4     3     4 1
     5     3    14 1
     6     4     5 1
     7     5     6 1
     8     5     7 2
     9     8     9 1
    10     9    10 1
    11     9    12 1
    12    10    11 1
    13    12    13 1
    14    12    14 1
    15    14    15 1
    16    15    16 1
    17    16    17 1
    18    16    18 1
    19    18    19 2
    20    18    20 1
    21    20    21 1
    22    21    22 1
    23    21    23 1
    24    23    24 1
    25    23    25 1
    26     1    26 1
    27     2    27 1
    28     3    28 1
    29     4    29 1
    30     6    30 1
    31     6    31 1
    32     6    32 1
    33     9    33 1
    34    10    34 1
    35    10    35 1
    36    11    36 1
    37    12    37 1
    38    13    38 1
    39    14    39 1
    40    16    40 1
    41    17    41 1
    42    17    42 1
    43    17    43 1
    44    20    44 1
    45    21    45 1
    46    22    46 1
    47    22    47 1
    48    22    48 1
@<TRIPOS>SUBSTRUCTURE
     1 UM0         1 TEMP              0 ****  ****    0 ROOT
