@<TRIPOS>MOLECULE
UM0
   48    48     1     0     0
SMALL
bcc


@<TRIPOS>ATOM
      1 O1           0.0000     0.0000     0.0000 oh         1 UM0      -0.612800
      2 C1           1.4290     0.0000     0.0000 c3         1 UM0       0.382900
      3 C2           1.9400     0.0000     1.4430 c3         1 UM0      -0.038300
      4 N2           1.4040    -1.1650     2.1520 ns         1 UM0      -0.179900
      5 CBC          2.0520    -2.3460     2.0940 c          1 UM0       0.580100
      6 CBE          1.5010    -3.5430     2.8230 c3         1 UM0      -0.065100
      7 OBD          3.0790    -2.4430     1.4560 o          1 UM0      -0.667100
      8 O5           1.9060     1.1670    -0.6730 os         1 UM0      -0.407600
      9 C5           1.4640     2.3960    -0.0930 c3         1 UM0       0.152100
     10 C6           2.0090     3.5710    -0.9080 c3         1 UM0       0.223400
     11 O6           1.4400     3.5450    -2.2180 oh         1 UM0      -0.583800
     12 C4           1.9760     2.4930     1.3460 c3         1 UM0       0.158100
     13 O4           1.4880     3.6940     1.9480 oh         1 UM0      -0.577800
     14 C3           1.4760     1.2830     2.1410 c3         1 UM0       0.145100
     15 O3           2.0090     1.3250     3.4660 os         1 UM0      -0.354600
     16 CBN          1.0850     0.9260     4.4780 c3         1 UM0       0.099100
     17 CBQ          0.2860     2.1440     4.9490 c3         1 UM0      -0.029100
     18 CBO          1.8370     0.3380     5.6440 c          1 UM0       0.539100
     19 OBP          3.0500     0.3510     5.6510 o          1 UM0      -0.660100
     20 N            1.1630    -0.2000     6.6790 ns         1 UM0      -0.142900
     21 CBA          1.8950    -0.7720     7.8120 c3         1 UM0      -0.102300
     22 CBB          2.2420     0.3380     8.8060 c3         1 UM0       0.008900
     23 C            1.0390    -1.8070     8.4940 c          1 UM0       0.976600
     24 O           -0.0710    -2.0430     8.0760 o          1 UM0      -0.890300
     25 OXT          1.5070    -2.4660     9.5650 o          1 UM0      -0.890300
     26 HO1         -0.3140    -0.4520    -0.7650 ho         1 UM0       0.399000
     27 H1           1.7950    -0.8830    -0.5100 h2         1 UM0       0.036700
     28 H2           3.0230    -0.0370     1.4410 h1         1 UM0       0.086700
     29 HN2          0.5580    -1.0830     2.6790 hn         1 UM0       0.186500
     30 HBE          0.4620    -3.3670     3.0740 hc         1 UM0       0.025700
     31 HBEA         1.5760    -4.4180     2.1890 hc         1 UM0       0.025700
     32 HBEB         2.0680    -3.7060     3.7320 hc         1 UM0       0.025700
     33 H5           0.3810     2.4230    -0.0910 h1         1 UM0       0.043700
     34 H6           1.7490     4.5020    -0.4190 h1         1 UM0      -0.007300
     35 H6A          3.0870     3.4910    -0.9810 h1         1 UM0      -0.007300
     36 HO6          1.8040     4.2460    -2.7330 ho         1 UM0       0.382000
     37 H4           3.0590     2.4980     1.3430 h1         1 UM0       0.022700
     38 HO4          2.2070     4.2850     2.0960 ho         1 UM0       0.392000
     39 H3           0.3930     1.3000     2.1800 h1         1 UM0       0.036700
     40 HBN          0.4060     0.1840     4.0750 h1         1 UM0       0.008700
     41 HBQ         -0.6380     2.2090     4.3870 hc         1 UM0       0.014033
     42 HBQA         0.0610     2.0420     6.0040 hc         1 UM0       0.014033
     43 HBQB         0.8700     3.0420     4.7890 hc         1 UM0       0.014033
     44 HN           0.1630    -0.2290     6.6650 hn         1 UM0       0.187500
     45 HBA          2.8070    -1.2360     7.4550 h1         1 UM0       0.054700
     46 HBB          1.8860     1.2880     8.4270 hc         1 UM0      -0.000967
     47 HBBA         3.3170     0.3830     8.9380 hc         1 UM0      -0.000967
     48 HBBB         1.7710     0.1300     9.7590 hc         1 UM0      -0.000967
@<TRIPOS>BOND
     1     1     2 1   
     2     1    26 1   
     3     2     3 1   
     4     2     8 1   
     5     2    27 1   
     6     3     4 1   
     7     3    14 1   
     8     3    28 1   
     9     4     5 1   
    10     4    29 1   
    11     5     6 1   
    12     5     7 2   
    13     6    30 1   
    14     6    31 1   
    15     6    32 1   
    16     8     9 1   
    17     9    10 1   
    18     9    12 1   
    19     9    33 1   
    20    10    11 1   
    21    10    34 1   
    22    10    35 1   
    23    11    36 1   
    24    12    13 1   
    25    12    14 1   
    26    12    37 1   
    27    13    38 1   
    28    14    15 1   
    29    14    39 1   
    30    15    16 1   
    31    16    17 1   
    32    16    18 1   
    33    16    40 1   
    34    17    41 1   
    35    17    42 1   
    36    17    43 1   
    37    18    19 2   
    38    18    20 1   
    39    20    21 1   
    40    20    44 1   
    41    21    22 1   
    42    21    23 1   
    43    21    45 1   
    44    22    46 1   
    45    22    47 1   
    46    22    48 1   
    47    23    24 1   
    48    23    25 1   
@<TRIPOS>SUBSTRUCTURE
     1 UM0         1 TEMP              0 ****  ****    0 ROOT
