@<TRIPOS>MOLECULE
UM3
   31    32     1     0     0
SMALL
bcc


@<TRIPOS>ATOM
      1 N1          0.1410    0.2170    0.0440 n         1 UM3     -0.352000
      2 C2          1.4870   -0.1660    0.2890 c         1 UM3      0.802500
      3 N3          1.8600   -0.5000    1.6160 n         1 UM3     -0.600500
      4 C4          0.9580   -0.5350    2.6830 c         1 UM3      0.721700
      5 C5         -0.4220   -0.1860    2.3610 cc        1 UM3     -0.386200
      6 C6         -0.7640    0.1380    1.0810 cd        1 UM3      0.083600
      7 O2          2.3780   -0.1950   -0.5820 o         1 UM3     -0.603500
      8 O4          1.3700   -0.8550    3.8200 o         1 UM3     -0.683500
      9 C1'        -0.3810    0.4340   -1.3280 c3        1 UM3      0.313500
     10 C2'         0.4160    1.3840   -2.2270 c3        1 UM3     -0.143400
     11 C3'         0.3060    0.7650   -3.6460 c3        1 UM3      0.239100
     12 C4'        -0.0780   -0.7190   -3.3570 c3        1 UM3      0.060100
     13 O3'        -0.6500    1.3920   -4.3860 os        1 UM3     -0.547200
     14 O4'        -0.5140   -0.8260   -1.9820 os        1 UM3     -0.456600
     15 C5'         1.0820   -1.6810   -3.5880 c3        1 UM3      0.153400
     16 O5'         1.1730   -2.0830   -4.9330 oh        1 UM3     -0.672800
     17 P          -0.0930    1.7590   -6.0160 p5        1 UM3      1.324900
     18 O1P         0.4970    0.4020   -6.3290 o         1 UM3     -0.924833
     19 O2P        -1.3550    2.1430   -6.7220 o         1 UM3     -0.924833
     20 O3P         0.9130    2.8350   -5.7340 o         1 UM3     -0.924833
     21 HN3         2.8110   -0.7570    1.7600 hn        1 UM3      0.333500
     22 H5         -1.1490   -0.2050    3.1780 ha        1 UM3      0.156000
     23 H6         -1.8140    0.3790    0.8180 h4        1 UM3      0.160000
     24 H1'        -1.4330    0.8310   -1.1790 h2        1 UM3      0.051700
     25 H2'1        1.4880    1.4570   -1.9280 hc        1 UM3      0.065700
     26 H2'2       -0.0420    2.4010   -2.2210 hc        1 UM3      0.065700
     27 H3'         1.3110    0.8020   -4.1600 h1        1 UM3      0.075700
     28 H4'        -0.9670   -1.0160   -3.9760 h1        1 UM3      0.091700
     29 H5'1        0.9270   -2.6260   -2.9980 h1        1 UM3      0.009700
     30 H5'2        2.0480   -1.2090   -3.2590 h1        1 UM3      0.009700
     31 HO5'        1.0190   -1.2910   -5.5020 ho        1 UM3      0.503000
@<TRIPOS>BOND
     1    1    2 1   
     2    1    6 1   
     3    1    9 1   
     4    2    3 1   
     5    2    7 2   
     6    3    4 1   
     7    3   21 1   
     8    4    5 1   
     9    4    8 2   
    10    5    6 2   
    11    5   22 1   
    12    6   23 1   
    13    9   10 1   
    14    9   14 1   
    15    9   24 1   
    16   10   11 1   
    17   10   25 1   
    18   10   26 1   
    19   11   12 1   
    20   11   13 1   
    21   11   27 1   
    22   12   14 1   
    23   12   15 1   
    24   12   28 1   
    25   13   17 1   
    26   15   16 1   
    27   15   29 1   
    28   15   30 1   
    29   16   31 1   
    30   17   18 1   
    31   17   19 1   
    32   17   20 1   
@<TRIPOS>SUBSTRUCTURE
     1 UM3         1 TEMP              0 ****  ****    0 ROOT
