@<TRIPOS>MOLECULE
UMC
   33    34     1     0     0
SMALL
bcc


@<TRIPOS>ATOM
      1 P           0.6110   -1.3280   -0.7890 p5        1 UMC      1.338900
      2 N1          0.3820   -5.9840   -3.6300 n         1 UMC     -0.453800
      3 C2          1.3130   -6.9280   -3.1580 c         1 UMC      0.808500
      4 O2          0.9760   -8.0600   -2.7260 o         1 UMC     -0.701500
      5 N3          2.6980   -6.6610   -3.2660 n         1 UMC     -0.618500
      6 C4          3.2120   -5.3880   -3.5540 c         1 UMC      0.725500
      7 O4          4.4500   -5.2680   -3.6200 o         1 UMC     -0.665500
      8 C5          2.2230   -4.2820   -3.7790 c3        1 UMC     -0.226400
      9 C6          0.9120   -4.8320   -4.3300 c3        1 UMC      0.076000
     10 C1'        -0.8780   -5.8870   -2.8660 c3        1 UMC      0.310500
     11 O1P         1.5680   -2.1190   -1.6560 o         1 UMC     -0.926500
     12 C2'        -0.7200   -5.8730   -1.3300 c3        1 UMC     -0.127400
     13 O2P         0.2020   -2.0890    0.4500 o         1 UMC     -0.926500
     14 C3'        -0.8650   -4.4000   -0.9460 c3        1 UMC      0.121100
     15 O3'        -1.6040   -4.2850    0.2480 oh        1 UMC     -0.660800
     16 O3P         0.8250    0.1480   -0.7030 o         1 UMC     -0.926500
     17 C4'        -1.6080   -3.7530   -2.1340 c3        1 UMC      0.061100
     18 O4'        -1.6190   -4.7200   -3.2180 os        1 UMC     -0.446600
     19 C5'        -0.9440   -2.4470   -2.6280 c3        1 UMC      0.209400
     20 O5'        -0.8890   -1.4860   -1.6590 os        1 UMC     -0.563200
     21 H6          1.0770   -5.1620   -5.3990 h1        1 UMC      0.060700
     22 H2'         0.2550   -6.2890   -0.9860 hc        1 UMC      0.053200
     23 H5'        -1.5750   -2.0740   -3.4900 h1        1 UMC     -0.001800
     24 H2'A       -1.5390   -6.4810   -0.8730 hc        1 UMC      0.053200
     25 H5'A        0.0900   -2.6820   -3.0110 h1        1 UMC     -0.001800
     26 H1'        -1.4970   -6.7640   -3.2170 h2        1 UMC      0.054700
     27 H3'         0.1400   -3.8810   -0.8220 h1        1 UMC      0.140700
     28 HO3'       -1.2620   -3.4690    0.6780 ho        1 UMC      0.485000
     29 H4'        -2.6860   -3.5780   -1.8820 h1        1 UMC      0.048700
     30 H5          2.6540   -3.5390   -4.4960 hc        1 UMC      0.160700
     31 H5A         2.0540   -3.6960   -2.8000 hc        1 UMC      0.160700
     32 HN3         3.3170   -7.3920   -3.0000 hn        1 UMC      0.317500
     33 H6A         0.1380   -4.0120   -4.3440 h1        1 UMC      0.060700
@<TRIPOS>BOND
     1    1   11 1
     2    1   13 1
     3    1   16 1
     4    1   20 1
     5    2    3 1
     6    2    9 1
     7    2   10 1
     8    3    4 2
     9    3    5 1
    10    5    6 1
    11    5   32 1
    12    6    7 2
    13    6    8 1
    14    8    9 1
    15    8   30 1
    16    8   31 1
    17    9   21 1
    18    9   33 1
    19   10   12 1
    20   10   18 1
    21   10   26 1
    22   12   14 1
    23   12   22 1
    24   12   24 1
    25   14   15 1
    26   14   17 1
    27   14   27 1
    28   15   28 1
    29   17   18 1
    30   17   19 1
    31   17   29 1
    32   19   20 1
    33   19   23 1
    34   19   25 1
@<TRIPOS>SUBSTRUCTURE
     1 UMC         1 TEMP              0 ****  ****    0 ROOT
