@<TRIPOS>MOLECULE
UMF
   31    28     1     0     0
SMALL
bcc


@<TRIPOS>ATOM
      1 N1         -1.0430   -0.4070   -1.0220 n2        1 UMF     -0.166000
      2 C2          2.4460   -0.9080   -0.1340 c1        1 UMF      0.160500
      3 O2          3.4760   -1.2420   -0.7260 o         1 UMF     -0.403500
      4 N3          2.4970   -1.0010    1.3030 n2        1 UMF     -0.367000
      5 C4          1.8360   -0.8800    2.3020 c1        1 UMF      0.160500
      6 O4          1.3350   -0.8170    3.4170 o         1 UMF     -0.403500
      7 C5         -2.2600    0.5490    0.9890 c2        1 UMF     -0.320000
      8 C6         -1.5610    0.1260   -0.0370 c1        1 UMF      0.040000
      9 O5'         2.9680   -2.7150   -3.2770 oh        1 UMF     -0.444000
     10 C5'        -0.3980   -1.9720   -4.6800 c2        1 UMF     -0.332000
     11 C4'        -0.5740   -1.0330   -3.7410 c2        1 UMF     -0.017000
     12 O4'         0.4390   -0.8880   -2.8040 os        1 UMF     -0.229000
     13 C3'        -0.5710    1.9220   -3.0460 c2        1 UMF      0.209000
     14 O3'        -1.4800    2.7200   -2.7610 os        1 UMF     -0.351000
     15 C2'         0.4330    1.4210   -2.0260 c3        1 UMF     -0.031000
     16 F2'         0.4720    2.2030   -0.8850 f         1 UMF     -0.157000
     17 C1'         0.2070   -0.0840   -1.6510 c3        1 UMF     -0.021000
     18 O3P        -3.7120    3.8040   -4.2340 o         1 UMF     -0.842833
     19 O1P        -1.3270    3.4810   -5.1510 o         1 UMF     -0.842833
     20 O2P        -2.6830    1.4530   -4.5100 o         1 UMF     -0.842833
     21 H3          1.1550   -0.4320   -0.9270 h2        1 UMF      0.290000
     22 H5         -2.0640    0.1810    2.0020 ha        1 UMF      0.136500
     23 H6         -3.0510    1.2960    0.8660 ha        1 UMF      0.136500
     24 H5'         3.4500   -2.3720   -2.5150 ho        1 UMF      0.217500
     25 H5'1        2.1180   -2.2650   -3.2150 ho        1 UMF      0.217500
     26 H5'2       -1.1400   -2.1070   -5.4730 ha        1 UMF      0.110500
     27 H4'         0.4830   -2.6220   -4.7130 ha        1 UMF      0.110500
     28 H3'        -1.4540   -0.3630   -3.6810 h4        1 UMF      0.200000
     29 H2'        -0.4430    1.5370   -4.0870 h4        1 UMF      0.186000
     30 H1'         1.4520    1.4640   -2.5170 h1        1 UMF      0.124000
     31 P          -2.5560    2.9340   -4.5260 p5        1 UMF      1.471500
@<TRIPOS>BOND
     1    1    8 1
     2    1   17 1
     3    2    3 1
     4    2    4 1
     5    4    5 1
     6    5    6 1
     7    7    8 1
     8    7   22 1
     9    7   23 1
    10    9   24 1
    11    9   25 1
    12   10   11 1
    13   10   26 1
    14   10   27 1
    15   11   12 1
    16   11   28 1
    17   12   17 1
    18   13   14 1
    19   13   15 1
    20   13   29 1
    21   14   31 1
    22   15   16 1
    23   15   17 1
    24   15   30 1
    25   17   21 1
    26   18   31 1
    27   19   31 1
    28   20   31 1
@<TRIPOS>SUBSTRUCTURE
     1 UMF         1 TEMP              0 ****  ****    0 ROOT
