@<TRIPOS>MOLECULE
UMK
   28    29     1     0     0
SMALL
bcc


@<TRIPOS>ATOM
      1 Br           0.0000     0.0000     0.0000 br         1 UMK      -0.131100
      2 C8           1.8910     0.0000     0.0000 ca         1 UMK       0.037100
      3 C7           2.5820     0.0000     1.1980 ca         1 UMK      -0.083500
      4 C6           3.9650     0.0010     1.1980 ca         1 UMK      -0.088500
      5 C9           2.5840    -0.0050    -1.1980 ca         1 UMK      -0.083500
      6 C10          3.9650    -0.0040    -1.1960 ca         1 UMK      -0.088500
      7 C5           4.6560     0.0020     0.0000 ca         1 UMK      -0.126300
      8 C            6.1640     0.0030     0.0010 c3         1 UMK       0.226100
      9 O            6.6410     0.6760     1.1680 oh         1 UMK      -0.587800
     10 C4           6.6750     0.7240    -1.2500 c3         1 UMK      -0.039400
     11 C3           8.2050     0.6690    -1.2740 c3         1 UMK       0.148800
     12 N            8.6450    -0.7320    -1.2800 n7         1 UMK      -0.583200
     13 C2           8.2060    -1.4320    -0.0660 c3         1 UMK       0.148800
     14 C1           6.6760    -1.4390    -0.0030 c3         1 UMK      -0.039400
     15 H7           2.0410    -0.0010     2.1360 ha         1 UMK       0.117000
     16 H9           2.0430    -0.0090    -2.1370 ha         1 UMK       0.117000
     17 H6           4.5070     0.0030     2.1360 ha         1 UMK       0.122000
     18 H10          4.5080    -0.0050    -2.1340 ha         1 UMK       0.122000
     19 H            6.3030     1.5560     1.1840 ho         1 UMK       0.397000
     20 H41C         6.3510     1.7580    -1.2270 hc         1 UMK       0.029950
     21 H42C         6.2820     0.2350    -2.1330 hc         1 UMK       0.029950
     22 H11C         6.3550    -1.9380     0.9030 hc         1 UMK       0.029950
     23 H12C         6.2820    -1.9600    -0.8680 hc         1 UMK       0.029950
     24 H31C         8.5680     1.1630    -2.1670 h1         1 UMK       0.011200
     25 H32C         8.5970     1.1660    -0.3950 h1         1 UMK       0.011200
     26 HA           9.6430    -0.7680    -1.3430 hn         1 UMK       0.251800
     27 H21C         8.5990    -0.9220     0.8050 h1         1 UMK       0.011200
     28 H22C         8.5690    -2.4520    -0.0880 h1         1 UMK       0.011200
@<TRIPOS>BOND
     1     1     2 1   
     2     2     3 ar  
     3     2     5 ar  
     4     3     4 ar  
     5     3    15 1   
     6     4     7 ar  
     7     4    17 1   
     8     5     6 ar  
     9     5    16 1   
    10     6     7 ar  
    11     6    18 1   
    12     7     8 1   
    13     8     9 1   
    14     8    10 1   
    15     8    14 1   
    16     9    19 1   
    17    10    11 1   
    18    10    20 1   
    19    10    21 1   
    20    11    12 1   
    21    11    24 1   
    22    11    25 1   
    23    12    13 1   
    24    12    26 1   
    25    13    14 1   
    26    13    27 1   
    27    13    28 1   
    28    14    22 1   
    29    14    23 1   
@<TRIPOS>SUBSTRUCTURE
     1 UMK         1 TEMP              0 ****  ****    0 ROOT
