@<TRIPOS>MOLECULE
UMO
   35    36     1     0     0
SMALL
bcc


@<TRIPOS>ATOM
      1 C1'          0.0000     0.0000     0.0000 c3         1 UMO       0.189500
      2 C2          -0.2510     1.8490    -1.5570 c          1 UMO       0.570500
      3 C2'          1.5500     0.0000     0.0000 c3         1 UMO       0.082600
      4 C3'          1.8750     0.0000     1.5140 c3         1 UMO       0.145100
      5 C4          -1.4480     1.6600    -3.5540 c          1 UMO       0.628700
      6 C4'          0.5890     0.5340     2.1760 c3         1 UMO       0.330600
      7 C5          -1.7290     0.3070    -3.2450 cc         1 UMO      -0.352200
      8 C5'          0.9050     1.7930     2.9850 c3         1 UMO       0.262400
      9 C6          -1.2630    -0.2120    -2.0890 cd         1 UMO      -0.055400
     10 F2'          2.0490    -1.1530    -0.6170 f          1 UMO      -0.239300
     11 N1          -0.5160     0.5670    -1.2480 n          1 UMO       0.060000
     12 N3          -0.7120     2.3960    -2.6970 ns         1 UMO      -0.131500
     13 O3'          2.1570    -1.3250     1.9650 oh         1 UMO      -0.553800
     14 O4          -1.8650     2.1530    -4.5860 o          1 UMO      -0.709500
     15 O4'         -0.3390     0.8430     1.1210 os         1 UMO      -0.342600
     16 O5'         -0.3110     2.3580     3.4800 os         1 UMO      -0.467200
     17 OM1          0.0320    -0.4670     3.0300 os         1 UMO      -0.435600
     18 OP1          0.3800     3.4220     5.7830 o          1 UMO      -0.748833
     19 OP2          0.3360     4.7910     3.6630 o          1 UMO      -0.748833
     20 P           -0.3560     3.6940     4.3770 p5         1 UMO       0.661900
     21 H1'         -0.3780    -1.0030     0.1540 h2         1 UMO       0.043700
     22 H2'          1.9330     0.8960    -0.4740 h1         1 UMO       0.070700
     23 H3'          2.7070     0.6620     1.7200 h1         1 UMO       0.033700
     24 H5          -2.3200    -0.2990    -3.9200 ha         1 UMO       0.136000
     25 H5'          1.4050     2.5140     2.3500 h1         1 UMO      -0.008300
     26 H5''         1.5490     1.5360     3.8170 h1         1 UMO      -0.008300
     27 H6          -1.4680    -1.2460    -1.8350 h4         1 UMO       0.124000
     28 H6M         -1.7040     0.6440     3.0060 h1         1 UMO       0.007700
     29 HM1         -1.8440    -0.9690     3.7180 h1         1 UMO       0.007700
     30 H6L         -1.0300     0.3240     4.6100 h1         1 UMO       0.007700
     31 H3          -0.5070     3.3520    -2.9100 hn         1 UMO       0.202500
     32 H1           3.0820    -1.4110     2.1300 ho         1 UMO       0.373000
     33 OP3         -1.8880     4.1100     4.6440 o          1 UMO      -0.748833
     34 CM1         -1.2120    -0.0940     3.6270 c3         1 UMO       0.229700
     35 O2           0.4120     2.5250    -0.7940 o          1 UMO      -0.618500
@<TRIPOS>BOND
     1     1     3 1   
     2     1    11 1   
     3     1    15 1   
     4     1    21 1   
     5     2    11 1   
     6     2    12 1   
     7     2    35 2   
     8     3     4 1   
     9     3    10 1   
    10     3    22 1   
    11     4     6 1   
    12     4    13 1   
    13     4    23 1   
    14     5     7 1   
    15     5    12 1   
    16     5    14 2   
    17     6     8 1   
    18     6    15 1   
    19     6    17 1   
    20     7     9 2   
    21     7    24 1   
    22     8    16 1   
    23     8    25 1   
    24     8    26 1   
    25     9    11 1   
    26     9    27 1   
    27    12    31 1   
    28    13    32 1   
    29    16    20 1   
    30    17    34 1   
    31    18    20 1   
    32    19    20 1   
    33    20    33 1   
    34    28    34 1   
    35    29    34 1   
    36    30    34 1   
@<TRIPOS>SUBSTRUCTURE
     1 UMO         1 TEMP              0 ****  ****    0 ROOT
