@<TRIPOS>MOLECULE
UMP
   31    32     1     0     0
SMALL
bcc


@<TRIPOS>ATOM
      1 N1           0.0000     0.0000     0.0000 n          1 UMP       0.065000
      2 C2           1.3450     0.0000     0.0000 c          1 UMP       0.591500
      3 N3           2.0380     0.0000     1.1560 ns         1 UMP      -0.138500
      4 C4           1.3870     0.0010     2.3370 c          1 UMP       0.627700
      5 C5          -0.0290     0.0010     2.3500 cc         1 UMP      -0.350200
      6 C6          -0.6970     0.0000     1.1780 cd         1 UMP      -0.032400
      7 O2           1.9450    -0.0000    -1.0580 o          1 UMP      -0.722500
      8 O4           2.0110     0.0000     3.3820 o          1 UMP      -0.705500
      9 C1'         -0.7250     0.0060    -1.2730 c3         1 UMP       0.195500
     10 C2'         -1.5170    -1.3070    -1.4300 c3         1 UMP      -0.120400
     11 C3'         -2.9860    -0.8470    -1.5870 c3         1 UMP       0.146100
     12 C4'         -2.8190     0.6250    -2.0430 c3         1 UMP       0.153100
     13 O3'         -3.6570    -1.6170    -2.5870 oh         1 UMP      -0.566800
     14 O4'         -1.6770     1.0830    -1.2890 os         1 UMP      -0.358600
     15 C5'         -4.0620     1.4430    -1.6870 c3         1 UMP       0.283400
     16 O5'         -3.9320     2.7640    -2.2190 os         1 UMP      -0.463200
     17 P           -5.0590     3.8970    -2.0350 p5         1 UMP       0.665900
     18 OP1         -6.3570     3.3900    -2.5330 o          1 UMP      -0.751500
     19 OP2         -5.1930     4.2730    -0.4750 o          1 UMP      -0.751500
     20 OP3         -4.6400     5.2100    -2.8680 o          1 UMP      -0.751500
     21 HN3          3.0380     0.0000     1.1380 hn         1 UMP       0.192500
     22 H5          -0.5690     0.0010     3.2900 ha         1 UMP       0.147000
     23 H6          -1.7800     0.0000     1.1690 h4         1 UMP       0.156000
     24 H1'         -0.0310     0.1170    -2.0970 h2         1 UMP       0.066700
     25 H2'         -1.1910    -1.8400    -2.3150 hc         1 UMP       0.020700
     26 H2''        -1.4060    -1.9230    -0.5460 hc         1 UMP       0.020700
     27 H3'         -3.5060    -0.8970    -0.6380 h1         1 UMP       0.013700
     28 H4'         -2.6160     0.6720    -3.1060 h1         1 UMP       0.035700
     29 HO3'        -4.1630    -2.2970    -2.1730 ho         1 UMP       0.371000
     30 H5'         -4.9400     0.9690    -2.1090 h1         1 UMP      -0.019300
     31 H5''        -4.1640     1.4960    -0.6100 h1         1 UMP      -0.019300
@<TRIPOS>BOND
     1     1     2 1   
     2     1     6 1   
     3     1     9 1   
     4     2     3 1   
     5     2     7 2   
     6     3     4 1   
     7     3    21 1   
     8     4     5 1   
     9     4     8 2   
    10     5     6 2   
    11     5    22 1   
    12     6    23 1   
    13     9    10 1   
    14     9    14 1   
    15     9    24 1   
    16    10    11 1   
    17    10    25 1   
    18    10    26 1   
    19    11    12 1   
    20    11    13 1   
    21    11    27 1   
    22    12    14 1   
    23    12    15 1   
    24    12    28 1   
    25    13    29 1   
    26    15    16 1   
    27    15    30 1   
    28    15    31 1   
    29    16    17 1   
    30    17    18 1   
    31    17    19 1   
    32    17    20 1   
@<TRIPOS>SUBSTRUCTURE
     1 UMP         1 TEMP              0 ****  ****    0 ROOT
