@<TRIPOS>MOLECULE
molecule
   27    28     1     0     0
SMALL
bcc


@<TRIPOS>ATOM
      1 O3           0.0000     0.0000     0.0000 o          1 UN3      -0.710200
      2 S1           1.5220     0.0000     0.0000 s6         1 UN3       1.428700
      3 O1           1.9090     0.0000     1.3680 o          1 UN3      -0.710200
      4 O2           1.9080    -0.9710    -0.9640 o          1 UN3      -0.710200
      5 N3           2.0180     1.4580    -0.6070 nu         1 UN3      -0.748500
      6 C5           1.7410     2.6320     0.0870 cc         1 UN3       0.226300
      7 N2           2.0940     3.8890    -0.2890 na         1 UN3       0.021400
      8 C4           2.8330     4.2480    -1.5020 c3         1 UN3       0.072600
      9 N1           1.6240     4.7810     0.6830 nc         1 UN3      -0.559800
     10 C6           1.0740     2.7270     1.2690 cd         1 UN3      -0.367300
     11 C3           1.0120     4.0880     1.6190 cd         1 UN3       0.392800
     12 C2           0.3670     4.6460     2.8340 ca         1 UN3      -0.081500
     13 C7           0.4860     3.9850     4.0550 ca         1 UN3      -0.107000
     14 C8          -0.1090     4.5120     5.1830 ca         1 UN3      -0.141500
     15 C9          -0.8340     5.6860     5.1020 ca         1 UN3      -0.143000
     16 C10         -0.9610     6.3430     3.8910 ca         1 UN3      -0.141500
     17 C1          -0.3640     5.8290     2.7570 ca         1 UN3      -0.107000
     18 HN3          2.5270     1.4940    -1.4680 hn         1 UN3       0.421800
     19 H41          2.9870     5.3200    -1.5270 h1         1 UN3       0.040367
     20 H42          3.7930     3.7460    -1.5020 h1         1 UN3       0.040367
     21 H43          2.2660     3.9450    -2.3740 h1         1 UN3       0.040367
     22 H6           0.6610     1.9020     1.8370 ha         1 UN3       0.202000
     23 H7           1.0540     3.0650     4.1210 ha         1 UN3       0.145500
     24 H8          -0.0150     3.9990     6.1330 ha         1 UN3       0.118000
     25 H9          -1.3020     6.0940     5.9900 ha         1 UN3       0.113000
     26 H10         -1.5300     7.2630     3.8330 ha         1 UN3       0.118000
     27 H1          -0.4640     6.3450     1.8100 ha         1 UN3       0.145500
@<TRIPOS>BOND
     1     1     2 1
     2     2     3 1
     3     2     4 1
     4     2     5 1
     5     5     6 1
     6     5    18 1
     7     6     7 1
     8     6    10 2
     9     7     8 1
    10     7     9 1
    11     8    19 1
    12     8    20 1
    13     8    21 1
    14     9    11 2
    15    10    11 1
    16    10    22 1
    17    11    12 1
    18    12    13 ar
    19    12    17 ar
    20    13    14 ar
    21    13    23 1
    22    14    15 ar
    23    14    24 1
    24    15    16 ar
    25    15    25 1
    26    16    17 ar
    27    16    26 1
    28    17    27 1
@<TRIPOS>SUBSTRUCTURE
     1 UN3         1 TEMP              0 ****  ****    0 ROOT
