@<TRIPOS>MOLECULE
molecule
   30    32     1     0     0
SMALL
bcc


@<TRIPOS>ATOM
      1 C2           0.0000     0.0000     0.0000 ca         1 UN4       0.982900
      2 C4           1.9980     0.0000     1.1420 ca         1 UN4       0.472800
      3 C5           1.2900    -0.0000     2.3560 ca         1 UN4      -0.172200
      4 C4'         -3.1030     0.0030     4.3050 c3         1 UN4       0.097700
      5 C3'         -4.8970    -1.5430     3.9320 c3         1 UN4      -0.173400
      6 C2'         -4.5930    -0.0280     3.9040 c3         1 UN4      -0.091400
      7 N9           3.3290    -0.0000     1.4810 na         1 UN4      -0.363000
      8 N3           1.3230     0.0000     0.0000 nb         1 UN4      -0.783000
      9 N2          -0.6690     0.0010    -1.2120 nv         1 UN4      -1.055500
     10 N1          -0.7070     0.0050     1.1220 nb         1 UN4      -0.843000
     11 C6          -0.1120     0.0000     2.3070 ca         1 UN4       0.739600
     12 O6          -0.8430     0.0010     3.4470 os         1 UN4      -0.388100
     13 C60         -2.2180     0.0020     3.0570 c3         1 UN4       0.108400
     14 C14         -3.8730    -2.1080     4.8900 c          1 UN4       0.700500
     15 N7           2.2080    -0.0010     3.3540 nc         1 UN4      -0.561100
     16 C8           3.4040    -0.0020     2.8440 cd         1 UN4       0.418700
     17 O14         -3.9350    -3.2040     5.4070 o          1 UN4      -0.628500
     18 N15         -2.8810    -1.2190     5.0850 ns         1 UN4      -0.581900
     19 H4'         -2.9000     0.8760     4.9130 h1         1 UN4       0.068700
     20 H3'1        -5.8990    -1.7200     4.3020 hc         1 UN4       0.077700
     21 H3'2        -4.7690    -1.9720     2.9450 hc         1 UN4       0.077700
     22 H2'1        -5.1990     0.4990     4.6310 hc         1 UN4       0.062700
     23 H2'2        -4.7330     0.3740     2.9070 hc         1 UN4       0.062700
     24 H9           4.1020    -0.0000     0.8460 hn         1 UN4       0.315700
     25 H2N1        -0.8980     0.8680    -1.6570 hn         1 UN4       0.446300
     26 H2N2        -0.9000    -0.8650    -1.6570 hn         1 UN4       0.446300
     27 H601        -2.4250     0.8860     2.4660 h1         1 UN4       0.065700
     28 H602        -2.4260    -0.8830     2.4680 h1         1 UN4       0.065700
     29 H8           4.3230    -0.0030     3.4160 h5         1 UN4       0.082800
     30 H15         -2.0940    -1.3730     5.6850 hn         1 UN4       0.348500
@<TRIPOS>BOND
     1     1     8 ar
     2     1     9 1
     3     1    10 ar
     4     2     3 ar
     5     2     7 1
     6     2     8 ar
     7     3    11 ar
     8     3    15 1
     9     4     6 1
    10     4    13 1
    11     4    18 1
    12     4    19 1
    13     5     6 1
    14     5    14 1
    15     5    20 1
    16     5    21 1
    17     6    22 1
    18     6    23 1
    19     7    16 1
    20     7    24 1
    21     9    25 1
    22     9    26 1
    23    10    11 ar
    24    11    12 1
    25    12    13 1
    26    13    27 1
    27    13    28 1
    28    14    17 2
    29    14    18 1
    30    15    16 2
    31    16    29 1
    32    18    30 1
@<TRIPOS>SUBSTRUCTURE
     1 UN4         1 TEMP              0 ****  ****    0 ROOT
