@<TRIPOS>MOLECULE
molecule
   56    58     1     0     0
SMALL
bcc


@<TRIPOS>ATOM
      1 O8           0.0000     0.0000     0.0000 o          1 UN5      -0.602100
      2 C9           1.2120     0.0000     0.0000 c          1 UN5       0.684100
      3 N4           1.8870    -0.0000    -1.1680 ns         1 UN5      -0.588900
      4 C20          1.1540     0.0010    -2.4360 c3         1 UN5       0.111300
      5 C8           1.9660     0.0000     1.3050 c3         1 UN5       0.046700
      6 N2           2.2910     1.3830     1.6920 n          1 UN5      -0.488800
      7 C11          3.1020     1.5700     2.9000 c3         1 UN5       0.155300
      8 C6           2.5960     0.6680     3.9990 ca         1 UN5      -0.098300
      9 C2           3.0900     0.8710     5.2790 ca         1 UN5      -0.170000
     10 C5           2.6810     0.0600     6.3260 ca         1 UN5       0.211600
     11 N1           3.1820     0.2670     7.6130 nu         1 UN5      -0.784500
     12 S1           3.6850    -1.0210     8.5240 s6         1 UN5       1.440700
     13 O3           4.8910    -1.6300     7.8220 o          1 UN5      -0.722533
     14 O2           4.1820    -0.4670     9.7350 o          1 UN5      -0.722533
     15 O1           2.6520    -1.9900     8.4250 o          1 UN5      -0.722533
     16 C4           1.7690    -0.9610     6.0870 ca         1 UN5      -0.149000
     17 C3           1.6860    -0.3390     3.7640 ca         1 UN5      -0.116300
     18 C7           1.0950    -0.6050     2.4040 c3         1 UN5      -0.028100
     19 C1           1.2770    -1.1540     4.8140 ca         1 UN5      -0.118000
     20 C10          1.8600     2.4330     0.9680 c          1 UN5       0.658100
     21 O4           1.1050     2.2580     0.0360 o          1 UN5      -0.598100
     22 C12          2.3160     3.8270     1.3150 c3         1 UN5      -0.148400
     23 C13          1.6860     4.8280     0.3450 c3         1 UN5      -0.016100
     24 C14          2.1430     6.2210     0.6930 ca         1 UN5      -0.084300
     25 C16          3.2900     6.7360     0.1160 ca         1 UN5      -0.178000
     26 C19          3.7120     8.0140     0.4330 ca         1 UN5      -0.119000
     27 C15          2.9900     8.7800     1.3270 ca         1 UN5      -0.160000
     28 C18          1.8390     8.2660     1.9080 ca         1 UN5       0.210600
     29 C17          1.4140     6.9840     1.5830 ca         1 UN5      -0.171000
     30 N3           1.1050     9.0390     2.8110 nu         1 UN5      -0.781500
     31 S2           0.7830    10.6270     2.4730 s6         1 UN5       1.441700
     32 O5          -0.1180    10.6570     1.2470 o          1 UN5      -0.723533
     33 O6          -0.0140    11.0980     3.5510 o          1 UN5      -0.723533
     34 O7           2.0190    11.1910     2.0570 o          1 UN5      -0.723533
     35 HN4          2.8860    -0.0470    -1.1680 hn         1 UN5       0.302500
     36 H201         1.8390     0.2130    -3.2480 h1         1 UN5       0.033700
     37 H202         0.7000    -0.9700    -2.5910 h1         1 UN5       0.033700
     38 H203         0.3820     0.7600    -2.4060 h1         1 UN5       0.033700
     39 H8           2.8790    -0.5750     1.2060 h1         1 UN5       0.051700
     40 H111         4.1280     1.3020     2.6750 h1         1 UN5       0.056200
     41 H112         3.0110     2.5990     3.2240 h1         1 UN5       0.056200
     42 H2           3.8010     1.6670     5.4620 ha         1 UN5       0.126000
     43 HN1          3.2420     1.1950     7.9840 hn         1 UN5       0.428800
     44 H4           1.4440    -1.6000     6.8990 ha         1 UN5       0.194000
     45 H71          0.1150    -0.1460     2.3590 hc         1 UN5       0.065700
     46 H72          1.0470    -1.6770     2.2540 hc         1 UN5       0.065700
     47 H1           0.5670    -1.9510     4.6290 ha         1 UN5       0.118000
     48 H121         2.0120     4.0650     2.3270 hc         1 UN5       0.065700
     49 H122         3.3960     3.8830     1.2400 hc         1 UN5       0.065700
     50 H131         0.6060     4.7730     0.4200 hc         1 UN5       0.056700
     51 H132         1.9900     4.5900    -0.6670 hc         1 UN5       0.056700
     52 H16          3.8580     6.1380    -0.5850 ha         1 UN5       0.106000
     53 H19          4.6110     8.4140    -0.0200 ha         1 UN5       0.111000
     54 H15          3.3230     9.7810     1.5760 ha         1 UN5       0.192000
     55 H17          0.5150     6.5800     2.0350 ha         1 UN5       0.127000
     56 HN3          0.6780     8.6030     3.6050 hn         1 UN5       0.426800
@<TRIPOS>BOND
     1     1     2 2
     2     2     3 1
     3     2     5 1
     4     3     4 1
     5     3    35 1
     6     4    36 1
     7     4    37 1
     8     4    38 1
     9     5     6 1
    10     5    18 1
    11     5    39 1
    12     6     7 1
    13     6    20 1
    14     7     8 1
    15     7    40 1
    16     7    41 1
    17     8     9 ar
    18     8    17 ar
    19     9    10 ar
    20     9    42 1
    21    10    11 1
    22    10    16 ar
    23    11    12 1
    24    11    43 1
    25    12    13 1
    26    12    14 1
    27    12    15 1
    28    16    19 ar
    29    16    44 1
    30    17    18 1
    31    17    19 ar
    32    18    45 1
    33    18    46 1
    34    19    47 1
    35    20    21 2
    36    20    22 1
    37    22    23 1
    38    22    48 1
    39    22    49 1
    40    23    24 1
    41    23    50 1
    42    23    51 1
    43    24    25 ar
    44    24    29 ar
    45    25    26 ar
    46    25    52 1
    47    26    27 ar
    48    26    53 1
    49    27    28 ar
    50    27    54 1
    51    28    29 ar
    52    28    30 1
    53    29    55 1
    54    30    31 1
    55    30    56 1
    56    31    32 1
    57    31    33 1
    58    31    34 1
@<TRIPOS>SUBSTRUCTURE
     1 UN5         1 TEMP              0 ****  ****    0 ROOT
