@<TRIPOS>MOLECULE
UN6
   45    46     1     0     0
SMALL
bcc


@<TRIPOS>ATOM
      1 O7           0.0000     0.0000     0.0000 o          1 UN6      -0.650867
      2 S1           1.5220     0.0000     0.0000 s6         1 UN6       1.103700
      3 O5           1.9080     0.0000     1.3680 o          1 UN6      -0.650867
      4 O6           1.9080     0.9710    -0.9640 o          1 UN6      -0.650867
      5 N1           2.0170    -1.4580    -0.6080 nu         1 UN6      -0.446500
      6 C5           1.7380    -1.7930    -1.9340 ca         1 UN6       0.143600
      7 C4           1.9420    -0.8630    -2.9450 ca         1 UN6      -0.149000
      8 C1           1.6650    -1.1980    -4.2560 ca         1 UN6      -0.094000
      9 C2           1.2500    -3.0570    -2.2460 ca         1 UN6      -0.146000
     10 C6           0.9810    -3.3870    -3.5590 ca         1 UN6      -0.122300
     11 C3           1.1850    -2.4570    -4.5630 ca         1 UN6      -0.149000
     12 C7           0.4580    -4.7590    -3.8980 c3         1 UN6       0.115300
     13 N2           1.5830    -5.6580    -4.1660 ns         1 UN6      -0.196900
     14 C8           1.3540    -6.9450    -4.4930 c          1 UN6       0.565100
     15 O1           0.2160    -7.3590    -4.5650 o          1 UN6      -0.668100
     16 C9           2.5110    -7.8700    -4.7680 c3         1 UN6      -0.095400
     17 C10          1.9800    -9.2630    -5.1130 c3         1 UN6       0.047900
     18 C11          3.1380   -10.1880    -5.3880 ca         1 UN6      -0.065300
     19 C14          3.6360   -10.3070    -6.6710 ca         1 UN6      -0.173000
     20 C15          4.6980   -11.1640    -6.9250 ca         1 UN6       0.148600
     21 N3           5.2000   -11.2910    -8.2220 nu         1 UN6      -0.441500
     22 S2           5.5390   -12.7910    -8.8360 s6         1 UN6       1.104700
     23 O4           4.2220   -13.5460    -8.9440 o          1 UN6      -0.652867
     24 O3           6.2850   -13.4610    -7.8290 o          1 UN6      -0.652867
     25 O2           5.9700   -12.5740   -10.1720 o          1 UN6      -0.652867
     26 C12          5.2650   -11.8900    -5.8840 ca         1 UN6      -0.155000
     27 C16          4.7660   -11.7620    -4.6040 ca         1 UN6      -0.106000
     28 C13          3.7040   -10.9130    -4.3550 ca         1 UN6      -0.173000
     29 HN1          2.5350    -2.0910    -0.0300 hn         1 UN6       0.312800
     30 H4           2.3180     0.1240    -2.7050 ha         1 UN6       0.177000
     31 H1           1.8230    -0.4720    -5.0450 ha         1 UN6       0.087000
     32 H2           1.0900    -3.7860    -1.4610 ha         1 UN6       0.106000
     33 H3           0.9710    -2.7180    -5.5920 ha         1 UN6       0.092000
     34 H71         -0.1730    -4.6980    -4.7770 h1         1 UN6       0.021700
     35 H72         -0.1190    -5.1410    -3.0650 h1         1 UN6       0.021700
     36 HN2          2.5220    -5.3180    -4.0970 hn         1 UN6       0.176500
     37 H91          3.0900    -7.4880    -5.6000 hc         1 UN6       0.027200
     38 H92          3.1410    -7.9320    -3.8880 hc         1 UN6       0.027200
     39 H101         1.3500    -9.2010    -5.9920 hc         1 UN6       0.024700
     40 H102         1.4020    -9.6450    -4.2810 hc         1 UN6       0.024700
     41 H14          3.1590    -9.7790    -7.4880 ha         1 UN6       0.105000
     42 HN3          5.2480   -10.4880    -8.8170 hn         1 UN6       0.310800
     43 H12          6.1410   -12.5020    -6.0650 ha         1 UN6       0.169000
     44 H16          5.2090   -12.3260    -3.7920 ha         1 UN6       0.083000
     45 H13          3.3910   -11.0750    -3.3310 ha         1 UN6       0.095000
@<TRIPOS>BOND
     1     1     2 1   
     2     2     3 1   
     3     2     4 1   
     4     2     5 1   
     5     5     6 1   
     6     5    29 1   
     7     6     7 ar  
     8     6     9 ar  
     9     7     8 ar  
    10     7    30 1   
    11     8    11 ar  
    12     8    31 1   
    13     9    10 ar  
    14     9    32 1   
    15    10    11 ar  
    16    10    12 1   
    17    11    33 1   
    18    12    13 1   
    19    12    34 1   
    20    12    35 1   
    21    13    14 1   
    22    13    36 1   
    23    14    15 2   
    24    14    16 1   
    25    16    17 1   
    26    16    37 1   
    27    16    38 1   
    28    17    18 1   
    29    17    39 1   
    30    17    40 1   
    31    18    19 ar  
    32    18    28 ar  
    33    19    20 ar  
    34    19    41 1   
    35    20    21 1   
    36    20    26 ar  
    37    21    22 1   
    38    21    42 1   
    39    22    23 1   
    40    22    24 1   
    41    22    25 1   
    42    26    27 ar  
    43    26    43 1   
    44    27    28 ar  
    45    27    44 1   
    46    28    45 1   
@<TRIPOS>SUBSTRUCTURE
     1 UN6         1 TEMP              0 ****  ****    0 ROOT
