@<TRIPOS>MOLECULE
molecule
   53    55     1     0     0
SMALL
bcc


@<TRIPOS>ATOM
      1 O53          0.0000     0.0000     0.0000 o          1 UN7      -0.721867
      2 S33          1.4620     0.0000     0.0000 s6         1 UN7       1.427700
      3 O51          2.0200     0.0000     1.3700 o          1 UN7      -0.721867
      4 O52          2.0660    -1.0250    -0.8350 o          1 UN7      -0.721867
      5 N9           1.7960     1.4780    -0.5810 nu         1 UN7      -0.801500
      6 C5           3.0840     1.9250    -0.7050 ca         1 UN7       0.195600
      7 C4           3.9230     1.6080    -1.7710 ca         1 UN7      -0.129000
      8 C2           3.6130     2.7150     0.3150 ca         1 UN7      -0.114000
      9 C6           4.9210     3.1910     0.2710 ca         1 UN7      -0.105300
     10 C3           5.7450     2.8680    -0.7750 ca         1 UN7      -0.099300
     11 C7           7.1590     3.4230    -0.7750 c3         1 UN7      -0.025100
     12 C1           5.2460     2.0650    -1.8070 ca         1 UN7      -0.120000
     13 C19          5.4640     4.0540     1.3710 c3         1 UN7       0.149300
     14 N15          6.6450     4.8470     1.0510 n          1 UN7      -0.479800
     15 C13          7.2110     4.8940    -0.3030 c3         1 UN7       0.043700
     16 C16          6.4080     5.8010    -1.1950 c          1 UN7       0.665100
     17 N27          5.6580     6.7160    -0.6080 ns         1 UN7      -0.561900
     18 C28          4.7970     7.6760    -1.2840 c3         1 UN7       0.105300
     19 O26          6.3910     5.6730    -2.4070 o          1 UN7      -0.632100
     20 C20          7.2270     5.5760     2.0130 c          1 UN7       0.639100
     21 O21          8.2300     6.2410     1.7330 o          1 UN7      -0.654100
     22 C22          6.7810     5.6110     3.4630 c3         1 UN7      -0.141400
     23 C25          7.2940     6.7410     4.3560 c3         1 UN7      -0.001100
     24 C35          6.5490     6.7420     5.6720 ca         1 UN7      -0.114300
     25 C39          5.3670     7.4560     5.8810 ca         1 UN7      -0.105000
     26 C42          4.6800     7.3930     7.0950 ca         1 UN7      -0.081600
     27 C46          3.4030     8.1330     7.3770 c          1 UN7       0.904200
     28 O49          2.2620     7.5980     7.4330 o          1 UN7      -0.829300
     29 O48          3.5840     9.3630     7.5560 o          1 UN7      -0.829300
     30 C38          5.2090     6.6170     8.1140 ca         1 UN7      -0.120000
     31 C41          6.3790     5.8930     7.9240 ca         1 UN7      -0.152000
     32 C40          7.0440     5.9530     6.7010 ca         1 UN7      -0.161000
     33 HN9          1.0430     2.0770    -0.8550 hn         1 UN7       0.438800
     34 H4           3.5450     1.0020    -2.5860 ha         1 UN7       0.141000
     35 H2           2.9900     2.9660     1.1640 ha         1 UN7       0.149000
     36 H71          7.5410     3.3780    -1.7880 hc         1 UN7       0.059700
     37 H72          7.7570     2.8270    -0.0960 hc         1 UN7       0.059700
     38 H1           5.8820     1.8070    -2.6450 ha         1 UN7       0.118000
     39 H191         4.6790     4.7340     1.6790 h1         1 UN7       0.055200
     40 H192         5.7100     3.4130     2.2080 h1         1 UN7       0.055200
     41 H13          8.2400     5.2280    -0.2580 h1         1 UN7       0.107700
     42 H27          5.6850     6.7540     0.3920 hn         1 UN7       0.317500
     43 H281         5.3990     8.3190    -1.9160 h1         1 UN7       0.037367
     44 H282         4.2790     8.2780    -0.5470 h1         1 UN7       0.037367
     45 H283         4.0730     7.1470    -1.8920 h1         1 UN7       0.037367
     46 H221         7.0780     4.6740     3.9190 hc         1 UN7       0.064200
     47 H222         5.6980     5.6540     3.4710 hc         1 UN7       0.064200
     48 H251         8.3510     6.6000     4.5420 hc         1 UN7       0.046700
     49 H252         7.1410     7.6900     3.8560 hc         1 UN7       0.046700
     50 H39          4.9750     8.0760     5.0830 ha         1 UN7       0.126000
     51 H38          4.6940     6.5600     9.0660 ha         1 UN7       0.127000
     52 H41          6.7750     5.2830     8.7260 ha         1 UN7       0.102000
     53 H40          7.9560     5.3870     6.5560 ha         1 UN7       0.102000
@<TRIPOS>BOND
     1     1     2 1
     2     2     3 1
     3     2     4 1
     4     2     5 1
     5     5     6 1
     6     5    33 1
     7     6     7 ar
     8     6     8 ar
     9     7    12 ar
    10     7    34 1
    11     8     9 ar
    12     8    35 1
    13     9    10 ar
    14     9    13 1
    15    10    11 1
    16    10    12 ar
    17    11    15 1
    18    11    36 1
    19    11    37 1
    20    12    38 1
    21    13    14 1
    22    13    39 1
    23    13    40 1
    24    14    15 1
    25    14    20 1
    26    15    16 1
    27    15    41 1
    28    16    17 1
    29    16    19 2
    30    17    18 1
    31    17    42 1
    32    18    43 1
    33    18    44 1
    34    18    45 1
    35    20    21 2
    36    20    22 1
    37    22    23 1
    38    22    46 1
    39    22    47 1
    40    23    24 1
    41    23    48 1
    42    23    49 1
    43    24    25 ar
    44    24    32 ar
    45    25    26 ar
    46    25    50 1
    47    26    27 1
    48    26    30 ar
    49    27    28 1
    50    27    29 1
    51    30    31 ar
    52    30    51 1
    53    31    32 ar
    54    31    52 1
    55    32    53 1
@<TRIPOS>SUBSTRUCTURE
     1 UN7         1 TEMP              0 ****  ****    0 ROOT
