@<TRIPOS>MOLECULE
UN8
   68    72     1     0     0
SMALL
bcc


@<TRIPOS>ATOM
      1 O2         -0.9700   -1.6770   -2.0020 o         1 UN8     -0.654300
      2 S1          0.3780   -1.7890   -1.6380 sy        1 UN8      1.484800
      3 O1          0.7080   -2.8790   -0.8030 o         1 UN8     -0.654300
      4 C1          1.3330   -1.8850   -3.0020 cc        1 UN8     -0.035800
      5 C2          2.1250   -2.9730   -3.4420 cd        1 UN8     -0.087600
      6 N5          2.6970   -2.5950   -4.6430 na        1 UN8     -0.194900
      7 C4          3.5470   -3.3850   -5.4730 c3        1 UN8      0.011600
      8 C3          2.2470   -1.2810   -4.9130 cd        1 UN8      0.402400
      9 N7          1.4340   -0.8430   -3.9440 nc        1 UN8     -0.613000
     10 N4          0.9010   -0.4300   -0.8910 nh        1 UN8     -0.766500
     11 C8          0.8860    0.8640   -1.4270 ca        1 UN8      0.187600
     12 C9          1.9170    1.7800   -1.1210 ca        1 UN8     -0.161500
     13 C30         1.9770    3.0090   -1.7690 ca        1 UN8     -0.095500
     14 C7         -0.1430    1.2710   -2.3090 ca        1 UN8     -0.161500
     15 C6         -0.0620    2.5000   -2.9510 ca        1 UN8     -0.095500
     16 C5          1.0200    3.3580   -2.7250 ca        1 UN8     -0.148300
     17 C16         1.1750    4.5920   -3.5430 c3        1 UN8     -0.062400
     18 C14         1.8320    4.2930   -4.8580 cc        1 UN8      0.467800
     19 N15         2.1190    2.9980   -5.2900 na        1 UN8     -0.251900
     20 C55         2.7230    3.1190   -6.5400 cc        1 UN8     -0.366200
     21 C56         3.2430    2.1100   -7.4370 c         1 UN8      0.774100
     22 O57         3.2410    0.8840   -7.2020 o         1 UN8     -0.671500
     23 C54         2.7780    4.5220   -6.8260 cd        1 UN8      0.496200
     24 N13         2.2170    5.2480   -5.7680 nd        1 UN8     -0.694000
     25 N53         3.3600    4.9760   -8.0020 n         1 UN8     -0.410300
     26 C59         3.3020    6.3770   -8.3750 c3        1 UN8      0.103000
     27 C10         1.9590    6.8340   -8.9420 c3        1 UN8     -0.104400
     28 C11         2.0220    8.3100   -9.2740 c3        1 UN8     -0.077400
     29 C12         0.7140    8.7980   -9.8410 c3        1 UN8     -0.092100
     30 C52         3.7900    4.0130   -8.9520 c         1 UN8      0.812500
     31 O58         4.2120    4.3960  -10.0630 o         1 UN8     -0.624500
     32 N51         3.7670    2.6230   -8.6420 n         1 UN8     -0.479400
     33 C17         4.3300    1.7060   -9.6210 c3        1 UN8      0.141300
     34 C18         5.8010    1.4460   -9.4680 ca        1 UN8     -0.146300
     35 C19         6.6970    1.7130  -10.5260 ca        1 UN8      0.149900
     36 F24         6.2520    2.2250  -11.6970 f         1 UN8     -0.130900
     37 C20         8.0710    1.4380  -10.3800 ca        1 UN8     -0.171000
     38 C21         8.5430    0.9010   -9.1880 ca        1 UN8     -0.098000
     39 C22         7.6620    0.6270   -8.1410 ca        1 UN8     -0.152000
     40 C23         6.3040    0.8960   -8.2850 ca        1 UN8     -0.094000
     41 H2          2.2940   -3.9450   -2.9710 h4        1 UN8      0.202000
     42 H41         4.3320   -3.8900   -4.8470 h1        1 UN8      0.064700
     43 H42         2.9460   -4.1700   -6.0070 h1        1 UN8      0.064700
     44 H43         4.0460   -2.7260   -6.2320 h1        1 UN8      0.064700
     45 H3          2.5520   -0.7230   -5.8130 h5        1 UN8      0.103100
     46 HN4         1.4020   -0.5020   -0.0330 hn        1 UN8      0.454800
     47 H9          2.6930    1.5200   -0.3850 ha        1 UN8      0.155000
     48 H30         2.8020    3.7020   -1.5400 ha        1 UN8      0.139000
     49 H7         -0.9980    0.6040   -2.5200 ha        1 UN8      0.155000
     50 H6         -0.8560    2.7920   -3.6560 ha        1 UN8      0.139000
     51 H161        1.7990    5.3540   -2.9990 hc        1 UN8      0.084200
     52 H162        0.1720    5.0580   -3.7490 hc        1 UN8      0.084200
     53 HN15        1.9200    2.1500   -4.8170 hn        1 UN8      0.339700
     54 H591        3.5420    6.9800   -7.4530 h1        1 UN8      0.078200
     55 H592        4.1080    6.5560   -9.1440 h1        1 UN8      0.078200
     56 H101        1.7150    6.2490   -9.8670 hc        1 UN8      0.055200
     57 H102        1.1420    6.6490   -8.1960 hc        1 UN8      0.055200
     58 H111        2.2720    8.8930   -8.3480 hc        1 UN8      0.041700
     59 H112        2.8450    8.4930  -10.0150 hc        1 UN8      0.041700
     60 H121        0.4600    8.2460  -10.7780 hc        1 UN8      0.035033
     61 H122       -0.1150    8.6450   -9.1080 hc        1 UN8      0.035033
     62 H123        0.7780    9.8870  -10.0790 hc        1 UN8      0.035033
     63 H171        3.7830    0.7230   -9.5140 h1        1 UN8      0.091200
     64 H172        4.1270    2.1270  -10.6500 h1        1 UN8      0.091200
     65 H20         8.7550    1.6560  -11.2130 ha        1 UN8      0.150000
     66 H21         9.6180    0.6920   -9.0730 ha        1 UN8      0.137000
     67 H22         8.0410    0.2000   -7.2010 ha        1 UN8      0.135000
     68 H23         5.6040    0.6730   -7.4620 ha        1 UN8      0.151000
@<TRIPOS>BOND
     1    1    2 2   
     2    2    3 2   
     3    2    4 1   
     4    2   10 1   
     5    4    5 2   
     6    4    9 1   
     7    5    6 1   
     8    5   41 1   
     9    6    7 1   
    10    6    8 1   
    11    7   42 1   
    12    7   43 1   
    13    7   44 1   
    14    8    9 2   
    15    8   45 1   
    16   10   11 1   
    17   10   46 1   
    18   11   12 ar  
    19   11   14 ar  
    20   12   13 ar  
    21   12   47 1   
    22   13   16 ar  
    23   13   48 1   
    24   14   15 ar  
    25   14   49 1   
    26   15   16 ar  
    27   15   50 1   
    28   16   17 1   
    29   17   18 1   
    30   17   51 1   
    31   17   52 1   
    32   18   19 1   
    33   18   24 2   
    34   19   20 1   
    35   19   53 1   
    36   20   21 1   
    37   20   23 2   
    38   21   22 2   
    39   21   32 1   
    40   23   24 1   
    41   23   25 1   
    42   25   26 1   
    43   25   30 1   
    44   26   27 1   
    45   26   54 1   
    46   26   55 1   
    47   27   28 1   
    48   27   56 1   
    49   27   57 1   
    50   28   29 1   
    51   28   58 1   
    52   28   59 1   
    53   29   60 1   
    54   29   61 1   
    55   29   62 1   
    56   30   31 2   
    57   30   32 1   
    58   32   33 1   
    59   33   34 1   
    60   33   63 1   
    61   33   64 1   
    62   34   35 ar  
    63   34   40 ar  
    64   35   36 1   
    65   35   37 ar  
    66   37   38 ar  
    67   37   65 1   
    68   38   39 ar  
    69   38   66 1   
    70   39   40 ar  
    71   39   67 1   
    72   40   68 1   
@<TRIPOS>SUBSTRUCTURE
     1 UN8         1 TEMP              0 ****  ****    0 ROOT
