@<TRIPOS>MOLECULE
UN9
   27    28     1     0     0
SMALL
bcc


@<TRIPOS>ATOM
      1 O18          0.0000     0.0000     0.0000 o          1 UN9      -0.888800
      2 C16          1.2460     0.0000     0.0000 c          1 UN9       1.013600
      3 O17          1.9940     0.0000     0.9840 o          1 UN9      -0.888800
      4 C15          1.9630    -0.0400    -1.3300 c3         1 UN9      -0.119000
      5 N14          1.0440    -0.1860    -2.3930 ns         1 UN9      -0.132900
      6 C12          1.4390    -0.0610    -3.7080 c          1 UN9       0.440600
      7 O13          2.6190    -0.0820    -4.0320 o          1 UN9      -0.661100
      8 C9           0.4390     0.0110    -4.8020 ca         1 UN9       0.327800
      9 N8           0.8790     0.4510    -6.0090 nb         1 UN9      -0.497000
     10 C7           0.0970     0.5310    -7.0730 ca         1 UN9       0.367300
     11 Cl1          0.8580     1.0990    -8.4520 cl         1 UN9      -0.078000
     12 C2          -1.2430     0.1880    -6.9730 ca         1 UN9      -0.118300
     13 C10         -0.8980    -0.3720    -4.6300 ca         1 UN9       0.045800
     14 O19         -1.3880    -0.7610    -3.4310 oh         1 UN9      -0.453100
     15 C3          -1.7550    -0.2450    -5.7370 ca         1 UN9      -0.061000
     16 C4          -3.0900    -0.6620    -5.6500 ca         1 UN9      -0.086000
     17 C5          -3.9670    -0.6000    -6.7150 ca         1 UN9      -0.099000
     18 C6          -3.4940    -0.1260    -7.9540 ca         1 UN9      -0.106000
     19 C1          -2.1430     0.2200    -8.0990 ca         1 UN9      -0.083000
     20 H151         2.6530    -0.8750    -1.3380 h1         1 UN9       0.018200
     21 H152         2.5180     0.8810    -1.4630 h1         1 UN9       0.018200
     22 HN14         0.0850    -0.3840    -2.1870 hn         1 UN9       0.216500
     23 HO19        -1.5950    -1.6800    -3.4600 ho         1 UN9       0.407000
     24 H4          -3.4570    -1.0280    -4.6990 ha         1 UN9       0.110000
     25 H5          -5.0080    -0.8700    -6.5890 ha         1 UN9       0.103000
     26 H6          -4.1630    -0.0680    -8.8040 ha         1 UN9       0.099000
     27 H1          -1.7870     0.5830    -9.0550 ha         1 UN9       0.107000
@<TRIPOS>BOND
     1     1     2 1   
     2     2     3 1   
     3     2     4 1   
     4     4     5 1   
     5     4    20 1   
     6     4    21 1   
     7     5     6 1   
     8     5    22 1   
     9     6     7 2   
    10     6     8 1   
    11     8     9 ar  
    12     8    13 ar  
    13     9    10 ar  
    14    10    11 1   
    15    10    12 ar  
    16    12    15 ar  
    17    12    19 ar  
    18    13    14 1   
    19    13    15 ar  
    20    14    23 1   
    21    15    16 ar  
    22    16    17 ar  
    23    16    24 1   
    24    17    18 ar  
    25    17    25 1   
    26    18    19 ar  
    27    18    26 1   
    28    19    27 1   
@<TRIPOS>SUBSTRUCTURE
     1 UN9         1 TEMP              0 ****  ****    0 ROOT
