@<TRIPOS>MOLECULE
molecule
   34    33     1     0     0
SMALL
bcc


@<TRIPOS>ATOM
      1 C11          0.0000     0.0000     0.0000 c3         1 UNA      -0.092100
      2 C10          1.5290     0.0000     0.0000 c3         1 UNA      -0.084400
      3 C9           2.0400     0.0000     1.4410 c3         1 UNA      -0.081400
      4 C8           3.5700    -0.0000     1.4410 c3         1 UNA      -0.082400
      5 C7           4.0820    -0.0020     2.8830 c3         1 UNA      -0.081400
      6 C6           5.6120    -0.0020     2.8820 c3         1 UNA      -0.081400
      7 C5           6.1220    -0.0020     4.3230 c3         1 UNA      -0.082400
      8 C4           7.6510    -0.0020     4.3230 c3         1 UNA      -0.080400
      9 C3           8.1630    -0.0030     5.7640 c3         1 UNA      -0.074400
     10 C2           9.6930    -0.0030     5.7640 c3         1 UNA      -0.204400
     11 C1          10.1960    -0.0030     7.1840 c          1 UNA       0.567900
     12 O1          10.8910    -0.9080     7.5780 o          1 UNA      -0.522100
     13 H113        -0.3610    -0.0000    -1.0210 hc         1 UNA       0.032700
     14 H112        -0.3610     0.8850     0.5110 hc         1 UNA       0.032700
     15 H111        -0.3610    -0.8850     0.5110 hc         1 UNA       0.032700
     16 H102         1.8900     0.8840    -0.5110 hc         1 UNA       0.039700
     17 H101         1.8900    -0.8840    -0.5110 hc         1 UNA       0.039700
     18 H92          1.6800     0.8840     1.9520 hc         1 UNA       0.041200
     19 H91          1.6800    -0.8840     1.9520 hc         1 UNA       0.041200
     20 H82          3.9300     0.8850     0.9310 hc         1 UNA       0.041200
     21 H81          3.9300    -0.8840     0.9290 hc         1 UNA       0.041200
     22 H72          3.7210    -0.8870     3.3930 hc         1 UNA       0.041200
     23 H71          3.7210     0.8820     3.3950 hc         1 UNA       0.041200
     24 H62          5.9720     0.8830     2.3710 hc         1 UNA       0.042200
     25 H61          5.9730    -0.8860     2.3710 hc         1 UNA       0.042200
     26 H52          5.7610     0.8820     4.8340 hc         1 UNA       0.042200
     27 H51          5.7610    -0.8870     4.8340 hc         1 UNA       0.042200
     28 H42          8.0120     0.8830     3.8120 hc         1 UNA       0.043700
     29 H41          8.0120    -0.8860     3.8110 hc         1 UNA       0.043700
     30 H32          7.8030     0.8810     6.2760 hc         1 UNA       0.045200
     31 H31          7.8030    -0.8880     6.2750 hc         1 UNA       0.045200
     32 H22         10.0540    -0.8870     5.2530 hc         1 UNA       0.067700
     33 H21         10.0540     0.8820     5.2530 hc         1 UNA       0.067700
     34 H1           9.9600     0.8240     7.8420 h4         1 UNA      -0.006800
@<TRIPOS>BOND
     1     1     2 1
     2     1    13 1
     3     1    14 1
     4     1    15 1
     5     2     3 1
     6     2    16 1
     7     2    17 1
     8     3     4 1
     9     3    18 1
    10     3    19 1
    11     4     5 1
    12     4    20 1
    13     4    21 1
    14     5     6 1
    15     5    22 1
    16     5    23 1
    17     6     7 1
    18     6    24 1
    19     6    25 1
    20     7     8 1
    21     7    26 1
    22     7    27 1
    23     8     9 1
    24     8    28 1
    25     8    29 1
    26     9    10 1
    27     9    30 1
    28     9    31 1
    29    10    11 1
    30    10    32 1
    31    10    33 1
    32    11    12 2
    33    11    34 1
@<TRIPOS>SUBSTRUCTURE
     1 UNA         1 TEMP              0 ****  ****    0 ROOT
