@<TRIPOS>MOLECULE
UNA
   34    33     1     0     0
SMALL
bcc


@<TRIPOS>ATOM
      1 C11         0.0150    0.0430   -0.0180 c3        1 UNA     -0.093100
      2 C10         1.5210    0.0040    0.0120 c3        1 UNA     -0.080400
      3 C9          2.0490    0.0300    1.4300 c3        1 UNA     -0.079400
      4 C8          3.5620   -0.0110    1.4550 c3        1 UNA     -0.079400
      5 C7          4.0890    0.0160    2.8740 c3        1 UNA     -0.079400
      6 C6          5.6020   -0.0270    2.8990 c3        1 UNA     -0.079400
      7 C5          6.1280    0.0020    4.3180 c3        1 UNA     -0.079400
      8 C4          7.6410   -0.0430    4.3420 c3        1 UNA     -0.078400
      9 C3          8.1670   -0.0130    5.7620 c3        1 UNA     -0.076400
     10 C2          9.6780   -0.0610    5.7820 c3        1 UNA     -0.204400
     11 C1         10.2160   -0.0040    7.1780 c         1 UNA      0.564900
     12 O1         11.2980   -0.4960    7.5010 o         1 UNA     -0.528100
     13 H113       -0.3650    0.9730    0.4700 hc        1 UNA      0.032700
     14 H112       -0.4140   -0.8360    0.5210 hc        1 UNA      0.032700
     15 H111       -0.3530    0.0240   -1.0730 hc        1 UNA      0.032700
     16 H102        1.9330    0.8800   -0.5560 hc        1 UNA      0.038700
     17 H101        1.8840   -0.9240   -0.5050 hc        1 UNA      0.038700
     18 H92         1.6390   -0.8460    1.9990 hc        1 UNA      0.039700
     19 H91         1.6890    0.9580    1.9480 hc        1 UNA      0.039700
     20 H82         3.9720    0.8640    0.8850 hc        1 UNA      0.039700
     21 H81         3.9220   -0.9400    0.9380 hc        1 UNA      0.039700
     22 H72         3.7300    0.9450    3.3910 hc        1 UNA      0.039700
     23 H71         3.6780   -0.8590    3.4450 hc        1 UNA      0.039700
     24 H62         6.0120    0.8470    2.3280 hc        1 UNA      0.040200
     25 H61         5.9600   -0.9560    2.3840 hc        1 UNA      0.040200
     26 H52         5.7710    0.9320    4.8330 hc        1 UNA      0.040200
     27 H51         5.7170   -0.8720    4.8900 hc        1 UNA      0.040200
     28 H42         8.0530    0.8300    3.7700 hc        1 UNA      0.042700
     29 H41         7.9980   -0.9740    3.8290 hc        1 UNA      0.042700
     30 H32         7.7540   -0.8850    6.3340 hc        1 UNA      0.043700
     31 H31         7.8090    0.9200    6.2740 hc        1 UNA      0.043700
     32 H22        10.0440   -0.9910    5.2700 hc        1 UNA      0.074200
     33 H21        10.0980    0.8150    5.2160 hc        1 UNA      0.074200
     34 H1          9.5770    0.5270    7.9200 h4        1 UNA     -0.006800
@<TRIPOS>BOND
     1    1    2 1   
     2    1   13 1   
     3    1   14 1   
     4    1   15 1   
     5    2    3 1   
     6    2   16 1   
     7    2   17 1   
     8    3    4 1   
     9    3   18 1   
    10    3   19 1   
    11    4    5 1   
    12    4   20 1   
    13    4   21 1   
    14    5    6 1   
    15    5   22 1   
    16    5   23 1   
    17    6    7 1   
    18    6   24 1   
    19    6   25 1   
    20    7    8 1   
    21    7   26 1   
    22    7   27 1   
    23    8    9 1   
    24    8   28 1   
    25    8   29 1   
    26    9   10 1   
    27    9   30 1   
    28    9   31 1   
    29   10   11 1   
    30   10   32 1   
    31   10   33 1   
    32   11   12 2   
    33   11   34 1   
@<TRIPOS>SUBSTRUCTURE
     1 UNA         1 TEMP              0 ****  ****    0 ROOT
