@<TRIPOS>MOLECULE
UNB
   63    66     1     0     0
SMALL
bcc


@<TRIPOS>ATOM
      1 C1           0.0000     0.0000     0.0000 ca         1 UNB       0.049000
      2 C2           1.4050     0.0000     0.0000 ca         1 UNB      -0.160500
      3 C3          -0.6950    -0.0110     1.2350 ca         1 UNB      -0.066000
      4 C4          -0.7290    -0.0060    -1.2010 ca         1 UNB      -0.128000
      5 S5           2.2920     0.0070    -1.5230 sy         1 UNB       1.046200
      6 C6           2.0790     0.0000     1.1840 ca         1 UNB       0.028000
      7 C7           0.0340    -0.0100     2.4360 ca         1 UNB      -0.020000
      8 C8          -2.1000    -0.0160     1.2340 ca         1 UNB      -0.073000
      9 C9          -2.0890    -0.0120    -1.1630 ca         1 UNB      -0.068000
     10 N10          1.9290    -1.4030    -2.3120 nu         1 UNB      -0.388500
     11 O11          3.6650    -0.0900    -1.1700 o          1 UNB      -0.573800
     12 O12          1.7130     1.0450    -2.3010 o          1 UNB      -0.573800
     13 C13          1.3950    -0.0050     2.3980 ca         1 UNB      -0.145000
     14 C14         -2.7740    -0.0170     0.0510 ca         1 UNB      -0.104000
     15 C15          2.3690    -2.6270    -1.7960 ca         1 UNB       0.062600
     16 C16          2.7500    -3.6530    -2.6590 ca         1 UNB       0.101100
     17 C17          2.4260    -2.8230    -0.4230 ca         1 UNB      -0.151000
     18 C18          3.1900    -4.8600    -2.1420 ca         1 UNB      -0.080300
     19 O19          2.6960    -3.4670    -4.0050 oh         1 UNB      -0.491100
     20 C20          2.8610    -4.0330     0.0840 ca         1 UNB      -0.066000
     21 C21          3.2390    -5.0500    -0.7730 ca         1 UNB      -0.086300
     22 C22          3.6030    -5.9720    -3.0720 c3         1 UNB      -0.030100
     23 C23          3.7120    -6.3670    -0.2140 c3         1 UNB       0.063200
     24 C24          5.0740    -5.8540    -3.3740 c          1 UNB       0.576100
     25 N25          5.6690    -6.7460    -4.1910 ns         1 UNB      -0.227900
     26 O26          5.7240    -4.9540    -2.8830 o          1 UNB      -0.600100
     27 C27          7.0990    -6.6300    -4.4840 c3         1 UNB       0.103300
     28 C28          7.5120    -7.7410    -5.4150 ca         1 UNB      -0.052300
     29 C29          7.4510    -7.5530    -6.7840 ca         1 UNB      -0.055000
     30 C30          7.9570    -8.9440    -4.8960 ca         1 UNB      -0.055000
     31 C31          7.8280    -8.5670    -7.6400 ca         1 UNB      -0.073500
     32 C32          8.3310    -9.9680    -5.7420 ca         1 UNB      -0.073500
     33 C33          8.2710    -9.7840    -7.1230 ca         1 UNB      -0.230900
     34 C34          8.6780   -10.8760    -8.0370 ce         1 UNB       0.211800
     35 N35          9.1150   -12.0780    -7.5230 nz         1 UNB       0.190400
     36 N36          8.6210   -10.7010    -9.3270 n2         1 UNB      -0.488100
     37 H4          -0.2110    -0.0030    -2.1530 ha         1 UNB       0.129000
     38 H6           3.1620     0.0040     1.1820 ha         1 UNB       0.132000
     39 H7          -0.4840    -0.0140     3.3880 ha         1 UNB       0.107000
     40 H8          -2.6450    -0.0200     2.1700 ha         1 UNB       0.108000
     41 H9          -2.6490    -0.0130    -2.0910 ha         1 UNB       0.103000
     42 H10          1.4290    -1.3760    -3.1790 hn         1 UNB       0.342800
     43 H13          1.9540    -0.0050     3.3260 ha         1 UNB       0.112000
     44 H14         -3.8570    -0.0210     0.0530 ha         1 UNB       0.106000
     45 H17          2.1300    -2.0280     0.2500 ha         1 UNB       0.137000
     46 H19          1.8130    -3.6060    -4.3060 ho         1 UNB       0.392000
     47 H20          2.9030    -4.1860     1.1550 ha         1 UNB       0.109000
     48 H221         3.4070    -6.9280    -2.6020 hc         1 UNB       0.033200
     49 H222         3.0380    -5.9010    -3.9940 hc         1 UNB       0.033200
     50 H231         4.7430    -6.5320    -0.5020 hc         1 UNB       0.007033
     51 H232         3.6370    -6.3490     0.8670 hc         1 UNB       0.007033
     52 H233         3.0950    -7.1680    -0.6050 hc         1 UNB       0.007033
     53 H25          5.1310    -7.4800    -4.6060 hn         1 UNB       0.170500
     54 H271         7.6640    -6.7020    -3.5620 h1         1 UNB       0.041700
     55 H272         7.2950    -5.6740    -4.9540 h1         1 UNB       0.041700
     56 H29          7.1070    -6.6070    -7.1840 ha         1 UNB       0.133500
     57 H30          8.0030    -9.0860    -3.8230 ha         1 UNB       0.133500
     58 H31          7.7790    -8.4180    -8.7120 ha         1 UNB       0.099000
     59 H32          8.6770   -10.9100    -5.3340 ha         1 UNB       0.099000
     60 H351         9.9250   -11.9230    -6.9570 hn         1 UNB       0.221800
     61 H352         9.3460   -12.6980    -8.2740 hn         1 UNB       0.221800
     62 H36          8.3030    -9.8290    -9.7010 hn         1 UNB       0.382400
     63 H353         8.3910   -12.4850    -6.9650 hn         1 UNB       0.221800
@<TRIPOS>BOND
     1     1     2 ar  
     2     1     3 ar  
     3     1     4 ar  
     4     2     5 1   
     5     2     6 ar  
     6     3     7 ar  
     7     3     8 ar  
     8     4     9 ar  
     9     4    37 1   
    10     5    10 1   
    11     5    11 2   
    12     5    12 2   
    13     6    13 ar  
    14     6    38 1   
    15     7    13 ar  
    16     7    39 1   
    17     8    14 ar  
    18     8    40 1   
    19     9    14 ar  
    20     9    41 1   
    21    10    15 1   
    22    10    42 1   
    23    13    43 1   
    24    14    44 1   
    25    15    16 ar  
    26    15    17 ar  
    27    16    18 ar  
    28    16    19 1   
    29    17    20 ar  
    30    17    45 1   
    31    18    21 ar  
    32    18    22 1   
    33    19    46 1   
    34    20    21 ar  
    35    20    47 1   
    36    21    23 1   
    37    22    24 1   
    38    22    48 1   
    39    22    49 1   
    40    23    50 1   
    41    23    51 1   
    42    23    52 1   
    43    24    25 1   
    44    24    26 2   
    45    25    27 1   
    46    25    53 1   
    47    27    28 1   
    48    27    54 1   
    49    27    55 1   
    50    28    29 ar  
    51    28    30 ar  
    52    29    31 ar  
    53    29    56 1   
    54    30    32 ar  
    55    30    57 1   
    56    31    33 ar  
    57    31    58 1   
    58    32    33 ar  
    59    32    59 1   
    60    33    34 1   
    61    34    35 1   
    62    34    36 2   
    63    35    60 1   
    64    35    61 1   
    65    35    63 1   
    66    36    62 1   
@<TRIPOS>SUBSTRUCTURE
     1 UNB         1 TEMP              0 ****  ****    0 ROOT
