@<TRIPOS>MOLECULE
UNC
   16    16     1     0     0
SMALL
bcc


@<TRIPOS>ATOM
      1 OD2        -0.0950   -0.0730   -0.0980 o         1 UNC     -0.213000
      2 N4          1.1020   -0.1200    0.0050 no        1 UNC      0.314100
      3 OD1         1.6370   -0.2200    1.0790 o         1 UNC     -0.213000
      4 C4          1.9370   -0.0520   -1.2250 cc        1 UNC     -0.182500
      5 N3          1.2450    0.0690   -2.4470 n         1 UNC     -0.453100
      6 C2          1.9060    0.1390   -3.6680 c         1 UNC      0.815500
      7 O2          1.2750    0.2430   -4.7400 o         1 UNC     -0.622500
      8 C5          3.3320   -0.1020   -1.1930 cd        1 UNC      0.158800
      9 N5          4.1100   -0.2160   -0.0900 nh        1 UNC     -0.824600
     10 C6          4.0720   -0.0250   -2.5170 c         1 UNC      0.697700
     11 O6          5.3130   -0.0620   -2.5770 o         1 UNC     -0.597500
     12 N1          3.3170    0.0900   -3.6700 n         1 UNC     -0.569500
     13 HN3         0.2450    0.1010   -2.4480 hn        1 UNC      0.380500
     14 HN51        5.0980   -0.2410   -0.2060 hn        1 UNC      0.471300
     15 HN52        3.7190   -0.2730    0.8220 hn        1 UNC      0.471300
     16 HN1         3.7750    0.1430   -4.5570 hn        1 UNC      0.367500
@<TRIPOS>BOND
     1    1    2 1
     2    2    3 1
     3    2    4 1
     4    4    5 1
     5    4    8 2
     6    5    6 1
     7    5   13 1
     8    6    7 2
     9    6   12 1
    10    8    9 1
    11    8   10 1
    12    9   14 1
    13    9   15 1
    14   10   11 2
    15   10   12 1
    16   12   16 1
@<TRIPOS>SUBSTRUCTURE
     1 UNC         1 TEMP              0 ****  ****    0 ROOT
