@<TRIPOS>MOLECULE
UND
   35    34     1     0     0
SMALL
bcc


@<TRIPOS>ATOM
      1 C1          0.0100    0.0010   -0.0150 c3        1 UND     -0.092100
      2 C2          1.5170   -0.0000    0.0140 c3        1 UND     -0.080400
      3 C3          2.0450    0.0000    1.4330 c3        1 UND     -0.079400
      4 C4          3.5590   -0.0010    1.4570 c3        1 UND     -0.079400
      5 C5          4.0860    0.0000    2.8760 c3        1 UND     -0.079400
      6 C6          5.5990   -0.0000    2.9000 c3        1 UND     -0.079400
      7 C7          6.1270   -0.0000    4.3180 c3        1 UND     -0.079400
      8 C8          7.6400    0.0000    4.3430 c3        1 UND     -0.079400
      9 C9          8.1670   -0.0000    5.7610 c3        1 UND     -0.079400
     10 C10         9.6810   -0.0000    5.7870 c3        1 UND     -0.080400
     11 C11        10.2100   -0.0000    7.1980 c3        1 UND     -0.092100
     12 H11        -0.3950   -0.9030    0.5010 hc        1 UND      0.032700
     13 H12        -0.3580   -0.0000   -1.0690 hc        1 UND      0.032700
     14 H13        -0.3940    0.9060    0.4990 hc        1 UND      0.032700
     15 H21         1.9030   -0.9040   -0.5280 hc        1 UND      0.038700
     16 H22         1.9050    0.9010   -0.5300 hc        1 UND      0.038700
     17 H31         1.6610    0.9030    1.9760 hc        1 UND      0.039700
     18 H32         1.6600   -0.9020    1.9770 hc        1 UND      0.039700
     19 H41         3.9440    0.9020    0.9120 hc        1 UND      0.039700
     20 H42         3.9430   -0.9030    0.9130 hc        1 UND      0.039700
     21 H51         3.7010   -0.9020    3.4200 hc        1 UND      0.039700
     22 H52         3.7010    0.9030    3.4190 hc        1 UND      0.039700
     23 H61         5.9840   -0.9030    2.3560 hc        1 UND      0.039700
     24 H62         5.9840    0.9020    2.3550 hc        1 UND      0.039700
     25 H71         5.7420   -0.9030    4.8630 hc        1 UND      0.039700
     26 H72         5.7420    0.9020    4.8620 hc        1 UND      0.039700
     27 H81         8.0250   -0.9020    3.7980 hc        1 UND      0.039700
     28 H82         8.0250    0.9030    3.7980 hc        1 UND      0.039700
     29 H91         7.7830   -0.9030    6.3060 hc        1 UND      0.039700
     30 H92         7.7830    0.9020    6.3060 hc        1 UND      0.039700
     31 H101       10.0640    0.9020    5.2410 hc        1 UND      0.038700
     32 H102       10.0640   -0.9020    5.2410 hc        1 UND      0.038700
     33 H111       11.3270   -0.0000    7.1940 hc        1 UND      0.032700
     34 H112        9.8600    0.9050    7.7510 hc        1 UND      0.032700
     35 H113        9.8600   -0.9050    7.7500 hc        1 UND      0.032700
@<TRIPOS>BOND
     1    1    2 1   
     2    1   12 1   
     3    1   13 1   
     4    1   14 1   
     5    2    3 1   
     6    2   15 1   
     7    2   16 1   
     8    3    4 1   
     9    3   17 1   
    10    3   18 1   
    11    4    5 1   
    12    4   19 1   
    13    4   20 1   
    14    5    6 1   
    15    5   21 1   
    16    5   22 1   
    17    6    7 1   
    18    6   23 1   
    19    6   24 1   
    20    7    8 1   
    21    7   25 1   
    22    7   26 1   
    23    8    9 1   
    24    8   27 1   
    25    8   28 1   
    26    9   10 1   
    27    9   29 1   
    28    9   30 1   
    29   10   11 1   
    30   10   31 1   
    31   10   32 1   
    32   11   33 1   
    33   11   34 1   
    34   11   35 1   
@<TRIPOS>SUBSTRUCTURE
     1 UND         1 TEMP              0 ****  ****    0 ROOT
