@<TRIPOS>MOLECULE
UNE
   21    22     1     0     0
SMALL
bcc


@<TRIPOS>ATOM
      1 O01        -0.0580   -0.0010    0.0150 os        1 UNE     -0.144200
      2 C02         1.3470    0.0030    0.0350 cc        1 UNE      0.033900
      3 C03         1.8240    0.0070    1.3360 cd        1 UNE     -0.235200
      4 C04         0.6770    0.0060    2.2110 ca        1 UNE     -0.065800
      5 C05        -0.4630    0.0020    1.3430 ca        1 UNE      0.023100
      6 C06        -1.7690    0.0000    1.8480 ca        1 UNE      0.136100
      7 C07        -1.9340    0.0040    3.2350 ca        1 UNE     -0.206000
      8 C08        -0.8120    0.0080    4.0830 ca        1 UNE     -0.012900
      9 C09         0.4890    0.0100    3.5940 ca        1 UNE     -0.105000
     10 BR10       -1.1030    0.0120    5.9440 br        1 UNE     -0.143100
     11 O11        -2.7990   -0.0040    0.9260 os        1 UNE     -0.301900
     12 C12        -4.1120   -0.0050    1.4660 c3        1 UNE      0.114700
     13 C13         2.0790    0.0010   -1.3030 c         1 UNE      0.934800
     14 O14         3.3350    0.0030   -1.2240 o         1 UNE     -0.791300
     15 O15         1.3980   -0.0030   -2.3560 o         1 UNE     -0.791300
     16 H03         2.8680    0.0100    1.6330 ha        1 UNE      0.169000
     17 H07        -2.9430    0.0030    3.6690 ha        1 UNE      0.135000
     18 H09         1.3580    0.0130    4.2660 ha        1 UNE      0.141000
     19 H12        -4.2890   -0.9210    2.0810 h1        1 UNE      0.036033
     20 H12A       -4.7670   -0.0090    0.5580 h1        1 UNE      0.036033
     21 H12B       -4.2930    0.9130    2.0770 h1        1 UNE      0.036033
@<TRIPOS>BOND
     1    1    2 1   
     2    1    5 1   
     3    2    3 2   
     4    2   13 1   
     5    3    4 1   
     6    3   16 1   
     7    4    5 ar  
     8    4    9 ar  
     9    5    6 ar  
    10    6    7 ar  
    11    6   11 1   
    12    7    8 ar  
    13    7   17 1   
    14    8    9 ar  
    15    8   10 1   
    16    9   18 1   
    17   11   12 1   
    18   12   19 1   
    19   12   20 1   
    20   12   21 1   
    21   13   14 1   
    22   13   15 1   
@<TRIPOS>SUBSTRUCTURE
     1 UNE         1 TEMP              0 ****  ****    0 ROOT
