@<TRIPOS>MOLECULE
molecule
   38    39     1     0     0
SMALL
bcc


@<TRIPOS>ATOM
      1 C1           0.0000     0.0000     0.0000 c3         1 UNF       0.336900
      2 C2           1.5350     0.0000     0.0000 c3         1 UNF       0.116100
      3 C3           2.0140     0.0000     1.4560 c3         1 UNF       0.179300
      4 C4           1.2550    -1.0400     2.2330 c2         1 UNF      -0.371200
      5 C5           0.1180    -1.5600     1.7960 ce         1 UNF       0.133900
      6 C6          -0.5610    -2.5670     2.6300 c          1 UNF       0.898800
      7 O1          -0.4810     0.0630    -1.3450 os         1 UNF      -0.393600
      8 O2           2.0160    -1.1690    -0.6660 oh         1 UNF      -0.577800
      9 O3           1.7860     1.2880     2.0320 oh         1 UNF      -0.579800
     10 O5          -0.4500    -1.2080     0.6170 os         1 UNF      -0.315900
     11 O6          -0.0770    -2.9030     3.6930 o          1 UNF      -0.839800
     12 C1'         -2.0340     1.8000    -3.9070 c3         1 UNF       0.329900
     13 C2'         -1.7620     0.2930    -3.9400 c3         1 UNF       0.103100
     14 C3'         -2.4220    -0.3640    -2.7230 c3         1 UNF       0.146100
     15 C4'         -1.8870     0.2950    -1.4490 c3         1 UNF       0.127100
     16 C5'         -2.1540     1.8020    -1.5110 c3         1 UNF       0.016100
     17 C6'         -1.5770     2.4660    -0.2870 c          1 UNF       0.895600
     18 O2'         -2.3070    -0.2640    -5.1380 oh         1 UNF      -0.629800
     19 O3'         -2.1120    -1.7580    -2.7060 oh         1 UNF      -0.570800
     20 O5'         -1.5390     2.3450    -2.6820 os         1 UNF      -0.400600
     21 O6'         -2.0770     2.1850     0.9270 o          1 UNF      -0.817800
     22 OAC         -0.6660     3.2510    -0.3980 o          1 UNF      -0.817800
     23 OAN         -1.7190    -3.1170     2.2140 o          1 UNF      -0.839800
     24 H1          -0.3630     0.8520     0.5630 h2         1 UNF       0.135700
     25 H2           1.8980     0.8880    -0.5020 h1         1 UNF       0.047700
     26 H3           3.0720    -0.2310     1.4850 h1         1 UNF      -0.000300
     27 HA           2.8300    -0.9720    -1.0990 ho         1 UNF       0.366000
     28 H41C         1.6520    -1.3770     3.1830 ha         1 UNF       0.140000
     29 HB           2.5370     1.5430     2.5420 ho         1 UNF       0.368000
     30 H4'         -2.3920    -0.1240    -0.5870 h1         1 UNF       0.103700
     31 H2'         -0.6930     0.1180    -3.9080 h1         1 UNF       0.086700
     32 H3'         -3.4960    -0.2270    -2.7770 h1         1 UNF       0.027700
     33 HD          -1.6070    -0.5660    -5.6920 ho         1 UNF       0.396000
     34 HE          -2.8950    -2.2570    -2.8690 ho         1 UNF       0.384000
     35 H5'         -3.2220     1.9760    -1.5530 h1         1 UNF       0.021700
     36 O1'         -1.3740     2.4260    -5.0080 oh         1 UNF      -0.601800
     37 HC          -1.8710     3.1780    -5.2860 ho         1 UNF       0.390000
     38 H1'         -3.1010     1.9740    -3.9730 h2         1 UNF       0.003700
@<TRIPOS>BOND
     1     1     2 1
     2     1     7 1
     3     1    10 1
     4     2     3 1
     5     2     8 1
     6     3     4 1
     7     3     9 1
     8     4     5 2
     9     5     6 1
    10     5    10 1
    11     6    11 1
    12     6    23 1
    13     7    15 1
    14    12    13 1
    15    12    36 1
    16    12    20 1
    17    13    14 1
    18    13    18 1
    19    14    15 1
    20    14    19 1
    21    15    16 1
    22    16    17 1
    23    16    20 1
    24    17    21 1
    25    17    22 1
    26     1    24 1
    27     2    25 1
    28     3    26 1
    29     8    27 1
    30     4    28 1
    31     9    29 1
    32    15    30 1
    33    12    38 1
    34    13    31 1
    35    36    37 1
    36    14    32 1
    37    18    33 1
    38    19    34 1
    39    16    35 1
@<TRIPOS>SUBSTRUCTURE
     1 UNF         1 TEMP              0 ****  ****    0 ROOT
