@<TRIPOS>MOLECULE
UNF
   38    39     1     0     0
SMALL
bcc


@<TRIPOS>ATOM
      1 C1         -0.0870    0.1570    0.1430 c3        1 UNF      0.278900
      2 C2          1.4440    0.3010    0.0830 c3        1 UNF      0.093100
      3 C3          2.0390   -0.1230    1.4430 c3        1 UNF      0.173300
      4 C4          1.3410   -1.3210    1.9740 c2        1 UNF     -0.403200
      5 C5          0.1920   -1.8060    1.4610 ce        1 UNF      0.090900
      6 C6         -0.4390   -3.1360    1.9050 c         1 UNF      0.931800
      7 O1         -0.5920    0.2970   -1.1670 os        1 UNF     -0.404600
      8 O2          2.0210   -0.4690   -0.9550 oh        1 UNF     -0.602800
      9 O3          2.0370    0.9710    2.3500 oh        1 UNF     -0.619800
     10 O5         -0.5040   -1.1870    0.4510 os        1 UNF     -0.363900
     11 O6         -1.1400   -3.1260    2.9500 o         1 UNF     -0.815800
     12 C1'        -1.8310    1.5290   -3.9900 c3        1 UNF      0.306900
     13 C2'        -1.8950    0.0260   -3.6360 c3        1 UNF      0.061100
     14 C3'        -2.6120   -0.2000   -2.2950 c3        1 UNF      0.147100
     15 C4'        -1.9590    0.7230   -1.2420 c3        1 UNF      0.100100
     16 C5'        -2.0690    2.1730   -1.7210 c3        1 UNF      0.008100
     17 C6'        -1.5770    3.2440   -0.7020 c         1 UNF      0.937600
     18 O1'        -0.8810    1.7440   -5.0110 oh        1 UNF     -0.638800
     19 O2'        -2.6250   -0.6490   -4.6510 oh        1 UNF     -0.597800
     20 O3'        -2.5650   -1.5560   -1.9150 oh        1 UNF     -0.600800
     21 O5'        -1.3570    2.3510   -2.9440 os        1 UNF     -0.403600
     22 O6'        -1.3500    2.8530    0.4770 o         1 UNF     -0.827300
     23 OAC        -1.5200    4.4390   -1.0890 o         1 UNF     -0.827300
     24 OAN        -0.1680   -4.1550    1.2160 o         1 UNF     -0.815800
     25 H1         -0.5430    0.8820    0.8740 h2        1 UNF      0.125700
     26 H2          1.7060    1.3680   -0.1560 h1        1 UNF      0.099700
     27 H3          3.1360   -0.3450    1.2960 h1        1 UNF      0.059700
     28 HA          1.5970   -1.3380   -0.9180 ho        1 UNF      0.414000
     29 H41C        1.8260   -1.8360    2.8110 ha        1 UNF      0.134000
     30 HB          1.1130    1.1740    2.5440 ho        1 UNF      0.410000
     31 H4'        -2.4690    0.6130   -0.2480 h1        1 UNF      0.093700
     32 H1'        -2.8230    1.8870   -4.3850 h2        1 UNF      0.048700
     33 H2'        -0.8520   -0.3920   -3.5690 h1        1 UNF      0.066700
     34 HC         -0.0370    1.9500   -4.5830 ho        1 UNF      0.430000
     35 H3'        -3.7050    0.0390   -2.4020 h1        1 UNF      0.062700
     36 HD         -2.1430   -0.4820   -5.4700 ho        1 UNF      0.390000
     37 HE         -1.7300   -1.7020   -1.4400 ho        1 UNF      0.439000
     38 H5'        -3.1620    2.3850   -1.9080 h1        1 UNF      0.020700
@<TRIPOS>BOND
     1    1    2 1   
     2    1    7 1   
     3    1   10 1   
     4    1   25 1   
     5    2    3 1   
     6    2    8 1   
     7    2   26 1   
     8    3    4 1   
     9    3    9 1   
    10    3   27 1   
    11    4    5 2   
    12    4   29 1   
    13    5    6 1   
    14    5   10 1   
    15    6   11 1   
    16    6   24 1   
    17    7   15 1   
    18    8   28 1   
    19    9   30 1   
    20   12   13 1   
    21   12   18 1   
    22   12   21 1   
    23   12   32 1   
    24   13   14 1   
    25   13   19 1   
    26   13   33 1   
    27   14   15 1   
    28   14   20 1   
    29   14   35 1   
    30   15   16 1   
    31   15   31 1   
    32   16   17 1   
    33   16   21 1   
    34   16   38 1   
    35   17   22 1   
    36   17   23 1   
    37   18   34 1   
    38   19   36 1   
    39   20   37 1   
@<TRIPOS>SUBSTRUCTURE
     1 UNF         1 TEMP              0 ****  ****    0 ROOT
