@<TRIPOS>MOLECULE
molecule
   38    39     1     0     0
SMALL
bcc


@<TRIPOS>ATOM
      1 C1           0.0000     0.0000     0.0000 c3         1 UNG       0.329900
      2 C2           1.5340     0.0000     0.0000 c3         1 UNG       0.116100
      3 C3           2.0650     0.0000     1.4360 c3         1 UNG       0.184300
      4 C4           1.2190    -0.8570     2.3310 c2         1 UNG      -0.368200
      5 C5           0.0470    -1.3680     1.9240 ce         1 UNG       0.112900
      6 C6          -0.6710    -2.2510     2.8440 c          1 UNG       0.896800
      7 O1          -0.4510     0.0040    -1.3530 os         1 UNG      -0.390600
      8 O2           1.9900    -1.1730    -0.6760 oh         1 UNG      -0.581800
      9 O3           2.0510     1.3350     1.9340 oh         1 UNG      -0.598800
     10 O5          -0.5360    -1.1310     0.7000 os         1 UNG      -0.276900
     11 O6          -0.2790    -2.5560     3.9570 o          1 UNG      -0.833800
     12 C1'         -2.3330     0.1430    -4.2800 c3         1 UNG       0.310900
     13 C2'         -1.9090    -1.1790    -3.6270 c3         1 UNG       0.102100
     14 C3'         -2.3610    -1.2310    -2.1650 c3         1 UNG       0.138100
     15 C4'         -1.8800     0.0180    -1.4210 c3         1 UNG       0.140100
     16 C5'         -2.3240     1.2680    -2.1790 c3         1 UNG       0.024100
     17 C6'         -1.7650     2.5100    -1.5600 c          1 UNG       0.908600
     18 O2'         -2.4680    -2.2610    -4.3620 oh         1 UNG      -0.613800
     19 O3'         -1.8280    -2.3840    -1.5200 oh         1 UNG      -0.560800
     20 O5'         -1.8490     1.2570    -3.5250 os         1 UNG      -0.392600
     21 O6'         -1.0090     3.2920    -2.1160 o          1 UNG      -0.838800
     22 OAC         -2.2100     2.6520    -0.2870 o          1 UNG      -0.838800
     23 OAN         -1.8200    -2.6650     2.2710 o          1 UNG      -0.833800
     24 H1          -0.3450     0.9030     0.4890 h2         1 UNG       0.095700
     25 H2           1.8930     0.8820    -0.5160 h1         1 UNG       0.048700
     26 H3           3.0810    -0.3770     1.4390 h1         1 UNG       0.007700
     27 HA           2.6700    -0.9410    -1.2850 ho         1 UNG       0.370000
     28 H4C1         1.5640    -1.0700     3.3350 ha         1 UNG       0.141000
     29 HB           2.8920     1.5400     2.3090 ho         1 UNG       0.369000
     30 H4'         -2.2990     0.0310    -0.4220 h1         1 UNG       0.112700
     31 H2'         -0.8290    -1.2500    -3.6580 h1         1 UNG       0.066700
     32 H3'         -3.4440    -1.2680    -2.1310 h1         1 UNG       0.042700
     33 HD          -1.7910    -2.6840    -4.8630 ho         1 UNG       0.381000
     34 HE          -2.5030    -3.0370    -1.4340 ho         1 UNG       0.390000
     35 H5'         -3.4060     1.3190    -2.1820 h1         1 UNG       0.049700
     36 O1'         -3.7520     0.1810    -4.4310 oh         1 UNG      -0.618800
     37 HC          -3.9700     0.5770    -5.2580 ho         1 UNG       0.384000
     38 H1'         -1.8850     0.1870    -5.2650 h2         1 UNG       0.022700
@<TRIPOS>BOND
     1     1     2 1
     2     2     3 1
     3     3     4 1
     4     4     5 2
     5     5     6 1
     6     1     7 1
     7     2     8 1
     8     3     9 1
     9     1    10 1
    10     5    10 1
    11     6    11 1
    12    12    13 1
    13    13    14 1
    14     7    15 1
    15    14    15 1
    16    15    16 1
    17    16    17 1
    18    12    36 1
    19    13    18 1
    20    14    19 1
    21    12    20 1
    22    16    20 1
    23    17    21 1
    24    17    22 1
    25     6    23 1
    26     1    24 1
    27     2    25 1
    28     3    26 1
    29     8    27 1
    30     4    28 1
    31     9    29 1
    32    15    30 1
    33    12    38 1
    34    13    31 1
    35    36    37 1
    36    14    32 1
    37    18    33 1
    38    19    34 1
    39    16    35 1
@<TRIPOS>SUBSTRUCTURE
     1 UNG         1 TEMP              0 ****  ****    0 ROOT
