@<TRIPOS>MOLECULE
UNG
   38    35     1     0     0
SMALL
bcc


@<TRIPOS>ATOM
      1 C1          1.9110    0.1780    1.1350 c2        1 UNG     -0.157000
      2 C2          2.0640    1.3880    1.7040 c2        1 UNG     -0.003000
      3 C3          2.4820   -3.6910    2.9890 c1        1 UNG     -0.018000
      4 C4          1.3840   -2.7870    3.1190 c2        1 UNG     -0.394000
      5 C5          1.1940   -1.5460    2.5900 c2        1 UNG      0.091000
      6 C6         -0.0380   -0.6820    2.8770 c2        1 UNG      0.351000
      7 O1          0.0110    0.9210   -3.0150 oh        1 UNG     -0.352000
      8 O2          2.3750    1.6260    3.0120 oh        1 UNG     -0.294000
      9 O3          3.5230   -3.4650    2.2430 oh        1 UNG     -0.197000
     10 O5          2.2000   -1.0050    1.8220 os        1 UNG     -0.201000
     11 O6         -1.0600   -0.8400    2.1620 o         1 UNG     -0.538500
     12 C1'        -3.0990   -0.9170   -4.0670 c1        1 UNG     -0.116000
     13 C2'        -4.1640   -0.8280   -3.0290 c3        1 UNG     -0.122000
     14 C3'        -1.7290    0.6160   -1.3680 c1        1 UNG     -0.056000
     15 C4'        -1.2580    1.3730   -2.5850 c3        1 UNG     -0.032000
     16 C5'        -2.3110    1.3260   -3.6920 c3        1 UNG     -0.151000
     17 C6'        -2.0330    2.3770   -4.8110 c2        1 UNG      0.345000
     18 O2'        -4.9380   -2.0180   -2.9990 oh        1 UNG     -0.342000
     19 O3'        -0.7590    0.2000   -0.5930 oh        1 UNG     -0.215000
     20 O5'        -2.2800    0.0190   -4.3450 os        1 UNG     -0.036000
     21 O6'        -0.8320    2.6700   -5.0620 o         1 UNG     -0.557500
     22 OAC        -3.0410    2.8850   -5.3660 o         1 UNG     -0.557500
     23 OAN         0.0810    0.1430    3.8250 o         1 UNG     -0.538500
     24 H1          0.1730    1.3310   -3.8830 ho        1 UNG      0.244000
     25 H2          1.5870    0.0050    0.0990 h4        1 UNG      0.181000
     26 H3          1.9880    2.3250    1.1290 h4        1 UNG      0.153000
     27 HA          1.9640    0.9210    3.5550 ho        1 UNG      0.261000
     28 H4C1        0.5670   -3.1660    3.7570 ha        1 UNG      0.152000
     29 HB          3.5320   -2.6240    1.7390 ho        1 UNG      0.160000
     30 H4'        -1.1790    2.4610   -2.2720 h1        1 UNG      0.098000
     31 H2'        -4.9070   -0.0130   -3.2530 h1        1 UNG      0.121500
     32 H3'        -3.7080   -0.6400   -2.0120 h1        1 UNG      0.121500
     33 HD         -4.3200   -2.7610   -3.0380 ho        1 UNG      0.209000
     34 HE         -1.1490   -0.2260    0.2070 ho        1 UNG      0.296000
     35 H5'        -3.3270    1.5100   -3.2570 h1        1 UNG      0.102000
     36 O1'        -3.8690   -3.3910   -5.2930 oh        1 UNG     -0.441000
     37 HC         -3.0590   -2.9000   -5.0890 ho        1 UNG      0.215500
     38 H1'        -4.5500   -2.7170   -5.1940 ho        1 UNG      0.215500
@<TRIPOS>BOND
     1    1    2 1   
     2    1   10 1   
     3    1   25 1   
     4    2    8 1   
     5    2   26 1   
     6    3    4 1   
     7    3    9 1   
     8    4    5 1   
     9    4   28 1   
    10    5    6 1   
    11    5   10 1   
    12    6   11 1   
    13    6   23 1   
    14    7   15 1   
    15    7   24 1   
    16    8   27 1   
    17    9   29 1   
    18   12   13 1   
    19   12   20 1   
    20   13   18 1   
    21   13   31 1   
    22   13   32 1   
    23   14   15 1   
    24   14   19 1   
    25   15   16 1   
    26   15   30 1   
    27   16   17 1   
    28   16   20 1   
    29   16   35 1   
    30   17   21 1   
    31   17   22 1   
    32   18   33 1   
    33   19   34 1   
    34   36   37 1   
    35   36   38 1   
@<TRIPOS>SUBSTRUCTURE
     1 UNG         1 TEMP              0 ****  ****    0 ROOT
