@<TRIPOS>MOLECULE
UNI
   64    67     1     0     0
SMALL
bcc


@<TRIPOS>ATOM
      1 CA         -0.1820    0.0030    0.2250 c2        1 UNI     -0.289000
      2 CA2         1.2290   -0.2690    0.0240 c2        1 UNI      0.360000
      3 OA2         1.8810   -0.3150   -1.0230 o         1 UNI     -0.316000
      4 OA3         2.0660   -0.4750    1.1220 os        1 UNI     -0.187000
      5 CA4         1.5600   -0.3600    2.3920 c2        1 UNI      0.117000
      6 CA5         0.2610   -0.0210    2.6400 c2        1 UNI     -0.195000
      7 CA6        -0.6290    0.1770    1.5120 c2        1 UNI      0.203000
      8 OA6        -1.8930    0.5500    1.8650 oh        1 UNI     -0.237000
      9 CB1        -2.3730   -0.4920   -0.9350 ca        1 UNI     -0.065000
     10 CB2        -2.5010   -1.8780   -0.8100 ca        1 UNI     -0.104000
     11 CB3        -3.7710   -2.4510   -0.7760 ca        1 UNI     -0.106000
     12 CB4        -4.9150   -1.6660   -0.8740 ca        1 UNI     -0.169000
     13 CB5        -4.7990   -0.2640   -1.0050 ca        1 UNI      0.076000
     14 CB6        -3.5110    0.3130   -1.0400 ca        1 UNI     -0.182000
     15 CG1        -1.0040    0.1350   -1.0200 c3        1 UNI     -0.063000
     16 CG2        -0.3390   -0.5840   -2.1500 c1        1 UNI      0.013000
     17 CG3        -0.1730   -0.6470   -4.6040 c3        1 UNI     -0.184000
     18 CG4         0.0180    0.1650   -3.3440 c3        1 UNI     -0.233000
     19 CD1         2.6240   -0.6110    3.4090 c3        1 UNI     -0.127000
     20 CD2         2.5510   -1.9960    4.0220 c3        1 UNI     -0.152000
     21 CD3         1.4540   -2.1700    5.0520 c3        1 UNI     -0.158000
     22 CD4         0.0760   -2.3570    4.4470 c3        1 UNI     -0.159000
     23 CD5        -0.8310   -1.1550    4.5930 c3        1 UNI     -0.152000
     24 CD6        -0.2650    0.1320    4.0220 c3        1 UNI     -0.097000
     25 N          -5.9330    0.5590   -1.1150 nh        1 UNI     -0.828000
     26 S          -7.4150    0.3350   -0.4750 s6        1 UNI      2.854000
     27 O1         -8.2480    1.3380   -1.0130 o         1 UNI     -0.923000
     28 O2         -7.8390   -0.9990   -0.6030 o         1 UNI     -0.923000
     29 CZ1        -7.1740    0.6590    1.1690 ca        1 UNI     -0.809000
     30 CZ2        -7.3320    1.9580    1.6670 ca        1 UNI     -0.020000
     31 CZ3        -7.1610    2.2330    3.0210 ca        1 UNI     -0.120000
     32 CZ4        -6.8270    1.1940    3.9010 ca        1 UNI      0.055000
     33 CZ5        -6.6770   -0.1140    3.4190 ca        1 UNI     -0.120000
     34 CZ6        -6.8530   -0.3690    2.0620 ca        1 UNI     -0.020000
     35 CZ7        -6.6430    1.4670    5.2850 c1        1 UNI     -0.111000
     36 NZ7        -6.4920    1.6900    6.4170 n1        1 UNI     -0.010000
     37 HO6        -2.4340    0.6410    1.0630 ho        1 UNI      0.242000
     38 HB2        -1.5940   -2.5020   -0.7640 ha        1 UNI      0.170000
     39 HB3        -3.8740   -3.5440   -0.6860 ha        1 UNI      0.144000
     40 HB4        -5.9070   -2.1520   -0.8650 ha        1 UNI      0.171000
     41 HB6        -3.3950    1.4010   -1.1710 ha        1 UNI      0.135000
     42 HG1        -1.1300    1.2460   -1.2090 hc        1 UNI      0.072000
     43 HG2        -1.2590   -0.8190   -4.7960 hc        1 UNI      0.078333
     44 HG31        0.3300   -1.6390   -4.5090 hc        1 UNI      0.078333
     45 HG32        0.2600   -0.1030   -5.4760 hc        1 UNI      0.078333
     46 HG41        1.1270    0.3710   -3.1980 hc        1 UNI      0.115000
     47 HG42       -0.4910    1.1620   -3.4530 hc        1 UNI      0.115000
     48 HD11        3.6260   -0.4920    2.9090 hc        1 UNI      0.112500
     49 HD12        2.5490    0.1730    4.2100 hc        1 UNI      0.112500
     50 HD21        2.4360   -2.7590    3.2080 hc        1 UNI      0.091500
     51 HD22        3.5390   -2.1920    4.5230 hc        1 UNI      0.091500
     52 HD31        1.4520   -1.2950    5.7550 hc        1 UNI      0.082500
     53 HD32        1.7030   -3.0780    5.6660 hc        1 UNI      0.082500
     54 HD41        0.1710   -2.6160    3.3580 hc        1 UNI      0.083000
     55 HD42       -0.4250   -3.2300    4.9450 hc        1 UNI      0.083000
     56 HD51       -1.8030   -1.3790    4.0780 hc        1 UNI      0.084000
     57 HD52       -1.0560   -0.9860    5.6790 hc        1 UNI      0.084000
     58 HD61        0.5530    0.5090    4.6950 hc        1 UNI      0.094500
     59 HD62       -1.0760    0.9110    4.0240 hc        1 UNI      0.094500
     60 HN         -5.7520    1.3970   -1.6260 hn        1 UNI      0.253000
     61 HZ2        -7.6160    2.7720    0.9760 ha        1 UNI      0.161000
     62 HZ3        -7.2900    3.2590    3.3980 ha        1 UNI      0.155500
     63 HZ5        -6.4240   -0.9330    4.1090 ha        1 UNI      0.155500
     64 HZ6        -6.7500   -1.4030    1.6820 ha        1 UNI      0.161000
@<TRIPOS>BOND
     1    1    2 1   
     2    1    7 1   
     3    1   15 1   
     4    2    3 1   
     5    2    4 1   
     6    4    5 1   
     7    5    6 1   
     8    5   19 1   
     9    6    7 1   
    10    6   24 1   
    11    7    8 1   
    12    8   37 1   
    13    9   10 1   
    14    9   14 1   
    15    9   15 1   
    16   10   11 1   
    17   10   38 1   
    18   11   12 1   
    19   11   39 1   
    20   12   13 1   
    21   12   40 1   
    22   13   14 1   
    23   13   25 1   
    24   14   41 1   
    25   15   16 1   
    26   15   42 1   
    27   16   18 1   
    28   17   18 1   
    29   17   43 1   
    30   17   44 1   
    31   17   45 1   
    32   18   46 1   
    33   18   47 1   
    34   19   20 1   
    35   19   48 1   
    36   19   49 1   
    37   20   21 1   
    38   20   50 1   
    39   20   51 1   
    40   21   22 1   
    41   21   52 1   
    42   21   53 1   
    43   22   23 1   
    44   22   54 1   
    45   22   55 1   
    46   23   24 1   
    47   23   56 1   
    48   23   57 1   
    49   24   58 1   
    50   24   59 1   
    51   25   26 1   
    52   25   60 1   
    53   26   27 1   
    54   26   28 1   
    55   26   29 1   
    56   29   30 1   
    57   29   34 1   
    58   30   31 1   
    59   30   61 1   
    60   31   32 1   
    61   31   62 1   
    62   32   33 1   
    63   32   35 1   
    64   33   34 1   
    65   33   63 1   
    66   34   64 1   
    67   35   36 1   
@<TRIPOS>SUBSTRUCTURE
     1 UNI         1 TEMP              0 ****  ****    0 ROOT
