@<TRIPOS>MOLECULE
UNJ
   17    18     1     0     0
SMALL
bcc


@<TRIPOS>ATOM
      1 C1         -0.0500   -0.0170    0.0320 cc        1 UNJ      0.032900
      2 O2          1.3570    0.0020   -0.0190 os        1 UNJ     -0.169200
      3 C3         -0.4980   -0.0320    1.3390 cd        1 UNJ     -0.231200
      4 C4          0.6690   -0.0210    2.1920 ca        1 UNJ     -0.088800
      5 C5         -0.7980   -0.0190   -1.2960 c         1 UNJ      0.934800
      6 C6          1.7940   -0.0000    1.2980 ca        1 UNJ      0.050100
      7 C7          0.8990   -0.0270    3.5640 ca        1 UNJ     -0.079000
      8 O8         -0.1280   -0.0120   -2.3570 o         1 UNJ     -0.792800
      9 C9          3.1090    0.0150    1.7470 ca        1 UNJ     -0.125000
     10 C10         2.2200   -0.0120    4.0150 ca        1 UNJ     -0.047900
     11 O11        -2.0540   -0.0270   -1.2060 o         1 UNJ     -0.792800
     12 C12         3.3070    0.0080    3.1260 ca        1 UNJ     -0.123000
     13 BR13        2.5610   -0.0200    5.8660 br        1 UNJ     -0.145100
     14 H3         -1.5350   -0.0480    1.6610 ha        1 UNJ      0.168000
     15 H7          0.0540   -0.0430    4.2670 ha        1 UNJ      0.139000
     16 H9          3.9510    0.0310    1.0440 ha        1 UNJ      0.142000
     17 H12         4.3350    0.0200    3.5180 ha        1 UNJ      0.129000
@<TRIPOS>BOND
     1    1    2 1
     2    1    3 2
     3    1    5 1
     4    2    6 1
     5    3    4 1
     6    3   14 1
     7    4    6 ar
     8    4    7 ar
     9    5    8 1
    10    5   11 1
    11    6    9 ar
    12    7   10 ar
    13    7   15 1
    14    9   12 ar
    15    9   16 1
    16   10   12 ar
    17   10   13 1
    18   12   17 1
@<TRIPOS>SUBSTRUCTURE
     1 UNJ         1 TEMP              0 ****  ****    0 ROOT
