@<TRIPOS>MOLECULE
UNM
   38    40     1     0     0
SMALL
bcc


@<TRIPOS>ATOM
      1 C01         0.0700    0.0950   -0.0550 ca        1 UNM     -0.005900
      2 C02         2.0520    0.2370    1.2600 ca        1 UNM     -0.092800
      3 C03         1.4530    0.2500    0.0010 ca        1 UNM     -0.088000
      4 C04         1.2490    0.0660    2.4220 ca        1 UNM      0.033100
      5 C05        -0.7180   -0.0720    1.0950 ca        1 UNM     -0.148000
      6 C06        -0.1540   -0.1030    2.3880 ca        1 UNM      0.167600
      7 O07         2.0410    0.0910    3.5740 os        1 UNM     -0.216200
      8 C08         3.4170    0.3730    1.7370 cc        1 UNM     -0.060200
      9 C09         3.3650    0.2810    3.1090 cd        1 UNM     -0.076100
     10 C10         4.4020    0.3410    4.1330 c         1 UNM      0.672300
     11 O11         4.0690    0.1910    5.4460 oh        1 UNM     -0.566100
     12 O12         5.6030    0.5200    3.9300 o         1 UNM     -0.476000
     13 BR13       -0.7840    0.1120   -1.7260 br        1 UNM     -0.081100
     14 C14        -2.2920   -0.1120    3.6110 c3        1 UNM      0.196500
     15 C15        -2.9090   -0.6240    4.9230 c3        1 UNM     -0.096400
     16 C16        -2.5320    0.2200    6.1190 c3        1 UNM     -0.078900
     17 C17        -2.9370    1.6880    5.9060 c3        1 UNM      0.171500
     18 C18        -2.2850    2.2130    4.6170 c3        1 UNM     -0.078900
     19 C19        -2.6830    1.3640    3.4320 c3        1 UNM     -0.096400
     20 N20        -2.5800    2.5070    7.0540 n3        1 UNM     -0.914800
     21 N21        -0.8660   -0.3860    3.5570 nh        1 UNM     -0.709600
     22 H03         2.0610    0.3800   -0.9060 ha        1 UNM      0.160000
     23 H05        -1.8080   -0.1860    0.9810 ha        1 UNM      0.156000
     24 H08         4.3020    0.5180    1.1190 ha        1 UNM      0.186000
     25 H14        -2.7640   -0.7010    2.7660 h1        1 UNM      0.062700
     26 H15        -4.0230   -0.6140    4.7900 hc        1 UNM      0.054200
     27 H15A       -2.6000   -1.6870    5.1050 hc        1 UNM      0.054200
     28 H16        -1.4300    0.1550    6.3140 hc        1 UNM      0.049950
     29 H16A       -3.0520   -0.1850    7.0280 hc        1 UNM      0.049950
     30 H17        -4.0610    1.6980    5.7340 h1        1 UNM      0.008700
     31 H18        -2.6080    3.2720    4.4340 hc        1 UNM      0.049950
     32 H18A       -1.1700    2.2200    4.7330 hc        1 UNM      0.049950
     33 H19        -3.7950    1.4100    3.2890 hc        1 UNM      0.054200
     34 H19A       -2.2070    1.7720    2.5020 hc        1 UNM      0.054200
     35 HN20        3.1150    0.0490    5.5430 ho        1 UNM      0.443000
     36 HN2A       -3.0300    2.1640    7.8780 hn        1 UNM      0.352800
     37 HN21       -0.3810   -0.0970    4.3850 hn        1 UNM      0.408800
     38 H203       -2.8470    3.4580    6.8970 hn        1 UNM      0.352800
@<TRIPOS>BOND
     1    1    3 ar  
     2    1    5 ar  
     3    1   13 1   
     4    2    3 ar  
     5    2    4 ar  
     6    2    8 1   
     7    3   22 1   
     8    4    6 ar  
     9    4    7 1   
    10    5    6 ar  
    11    5   23 1   
    12    6   21 1   
    13    7    9 1   
    14    8    9 2   
    15    8   24 1   
    16    9   10 1   
    17   10   11 1   
    18   10   12 2   
    19   11   35 1   
    20   14   15 1   
    21   14   19 1   
    22   14   21 1   
    23   14   25 1   
    24   15   16 1   
    25   15   26 1   
    26   15   27 1   
    27   16   17 1   
    28   16   28 1   
    29   16   29 1   
    30   17   18 1   
    31   17   20 1   
    32   17   30 1   
    33   18   19 1   
    34   18   31 1   
    35   18   32 1   
    36   19   33 1   
    37   19   34 1   
    38   20   36 1   
    39   20   38 1   
    40   21   37 1   
@<TRIPOS>SUBSTRUCTURE
     1 UNM         1 TEMP              0 ****  ****    0 ROOT
