@<TRIPOS>MOLECULE
molecule
   47    50     1     0     0
SMALL
bcc


@<TRIPOS>ATOM
      1 C1           0.0000     0.0000     0.0000 ca         1 UNN      -0.106000
      2 C2           1.3640     0.0000     0.0000 ca         1 UNN       0.078900
      3 C3           2.0800     0.0000     1.1990 ca         1 UNN       0.136900
      4 C4           1.4350    -0.0010     2.4000 ca         1 UNN      -0.208300
      5 C5           0.0340    -0.0010     2.4350 ca         1 UNN       0.489600
      6 N6          -0.6470    -0.0020     3.5900 nb         1 UNN      -0.778000
      7 C7          -1.9590    -0.0010     3.5890 ca         1 UNN       0.737900
      8 N8          -2.6770     0.0000     2.4770 nb         1 UNN      -0.837000
      9 C9          -2.1040     0.0010     1.2810 ca         1 UNN       0.758200
     10 C10         -0.6900    -0.0070     1.2180 ca         1 UNN      -0.326600
     11 N11         -2.8640     0.0020     0.1310 nu         1 UNN      -0.882900
     12 C12         -4.3260     0.0030     0.2200 c3         1 UNN       0.243500
     13 C13         -4.3090    -2.0930    -1.1030 ca         1 UNN      -0.077800
     14 C14         -4.9110    -0.7160    -0.9960 c3         1 UNN       0.009900
     15 C15         -4.3260    -2.9410    -0.0120 ca         1 UNN      -0.121750
     16 C16         -3.7720    -4.2050    -0.1110 ca         1 UNN      -0.123500
     17 C17         -3.2030    -4.6190    -1.3010 ca         1 UNN      -0.126000
     18 C18         -3.1870    -3.7700    -2.3920 ca         1 UNN      -0.123500
     19 C19         -3.7440    -2.5100    -2.2940 ca         1 UNN      -0.121750
     20 C20         -6.4060    -0.8330    -0.8410 ca         1 UNN      -0.077800
     21 C21         -7.2420    -0.4070    -1.8560 ca         1 UNN      -0.121750
     22 C22         -8.6120    -0.5150    -1.7120 ca         1 UNN      -0.123500
     23 C23         -9.1470    -1.0480    -0.5540 ca         1 UNN      -0.126000
     24 C24         -8.3100    -1.4720     0.4610 ca         1 UNN      -0.123500
     25 C25         -6.9390    -1.3700     0.3150 ca         1 UNN      -0.121750
     26 F28          2.0310     0.0010    -1.1750 f          1 UNN      -0.129900
     27 F29          3.4310    -0.0000     1.1680 f          1 UNN      -0.123900
     28 C31         -4.8340     1.4460     0.2530 c3         1 UNN      -0.108100
     29 H1          -0.5460    -0.0000    -0.9360 ha         1 UNN       0.145000
     30 H4           2.0030    -0.0010     3.3230 ha         1 UNN       0.174000
     31 H7          -2.4780    -0.0020     4.5400 h5         1 UNN       0.059100
     32 HN          -2.4180     0.0520    -0.7640 hn         1 UNN       0.451800
     33 H12         -4.6320    -0.5080     1.1240 h1         1 UNN       0.091700
     34 H14         -4.6840    -0.1520    -1.8920 hc         1 UNN       0.060700
     35 H15         -4.7720    -2.6170     0.9200 ha         1 UNN       0.131250
     36 H16         -3.7850    -4.8700     0.7440 ha         1 UNN       0.131500
     37 H17         -2.7670    -5.6080    -1.3780 ha         1 UNN       0.131000
     38 H18         -2.7430    -4.0950    -3.3250 ha         1 UNN       0.131500
     39 H19         -3.7310    -1.8450    -3.1490 ha         1 UNN       0.131250
     40 H21         -6.8230     0.0100    -2.7630 ha         1 UNN       0.131250
     41 H22         -9.2680    -0.1810    -2.5070 ha         1 UNN       0.131500
     42 H23        -10.2210    -1.1300    -0.4400 ha         1 UNN       0.131000
     43 H24         -8.7280    -1.8920     1.3680 ha         1 UNN       0.131500
     44 H25         -6.2840    -1.7030     1.1110 ha         1 UNN       0.131250
     45 H311        -5.2090     1.7190    -0.7260 hc         1 UNN       0.046033
     46 H312        -4.0210     2.1080     0.5260 hc         1 UNN       0.046033
     47 H313        -5.6300     1.5320     0.9820 hc         1 UNN       0.046033
@<TRIPOS>BOND
     1     1     2 ar
     2     1    10 ar
     3     1    29 1
     4     2     3 ar
     5     2    26 1
     6     3     4 ar
     7     3    27 1
     8     4     5 ar
     9     4    30 1
    10     5     6 ar
    11     5    10 ar
    12     6     7 ar
    13     7     8 ar
    14     7    31 1
    15     8     9 ar
    16     9    10 ar
    17     9    11 1
    18    11    12 1
    19    11    32 1
    20    12    14 1
    21    12    28 1
    22    12    33 1
    23    13    14 1
    24    13    15 ar
    25    13    19 ar
    26    14    20 1
    27    14    34 1
    28    15    16 ar
    29    15    35 1
    30    16    17 ar
    31    16    36 1
    32    17    18 ar
    33    17    37 1
    34    18    19 ar
    35    18    38 1
    36    19    39 1
    37    20    21 ar
    38    20    25 ar
    39    21    22 ar
    40    21    40 1
    41    22    23 ar
    42    22    41 1
    43    23    24 ar
    44    23    42 1
    45    24    25 ar
    46    24    43 1
    47    25    44 1
    48    28    45 1
    49    28    46 1
    50    28    47 1
@<TRIPOS>SUBSTRUCTURE
     1 UNN         1 TEMP              0 ****  ****    0 ROOT
