@<TRIPOS>MOLECULE
molecule
   41    42     1     0     0
SMALL
bcc


@<TRIPOS>ATOM
      1 O2G          0.0000     0.0000     0.0000 o          1 UNP      -0.804833
      2 PG           1.4800     0.0000     0.0000 p5         1 UNP       1.200800
      3 O3G          2.0160     0.0000     1.5180 o          1 UNP      -0.804833
      4 O1G          2.0170    -1.3150    -0.7580 o          1 UNP      -0.804833
      5 N2B          2.0410     1.3730    -0.7940 n7         1 UNP      -0.917400
      6 PB           1.5010     2.7730    -0.0320 p5         1 UNP       1.352700
      7 O1B         -0.1090     2.7980    -0.0320 o          1 UNP      -0.827500
      8 O3B          1.9940     2.7970     1.3630 o          1 UNP      -0.827500
      9 O3A          2.0580     4.0620    -0.8200 os         1 UNP      -0.722800
     10 PA           1.9080     5.6520    -0.6110 p5         1 UNP       1.431800
     11 O1A          0.4380     6.1180    -1.0710 o          1 UNP      -0.851500
     12 O2A          2.1060     5.9810     0.8180 o          1 UNP      -0.851500
     13 O5'          3.0160     6.4150    -1.4960 os         1 UNP      -0.586200
     14 C5'          3.2110     7.8300    -1.4470 c3         1 UNP       0.240400
     15 C4'          4.3350     8.2230    -2.4070 c3         1 UNP       0.123100
     16 C3'          4.6480     9.7310    -2.2790 c3         1 UNP       0.087100
     17 O3'          5.7850     9.9370    -1.4380 oh         1 UNP      -0.581800
     18 C2'          4.9580    10.1740    -3.7270 c3         1 UNP       0.073100
     19 O2'          6.2960    10.6670    -3.8240 oh         1 UNP      -0.578800
     20 O4'          3.9100     8.0500    -3.7760 os         1 UNP      -0.365600
     21 C1'          4.7950     8.8820    -4.5570 c3         1 UNP       0.298500
     22 N1           4.1940     9.1850    -5.8590 n          1 UNP      -0.328000
     23 C2           4.9050     8.9880    -6.9840 c          1 UNP       0.812500
     24 O2           6.0410     8.5600    -6.9080 o          1 UNP      -0.716500
     25 C6           2.9120     9.6610    -5.9200 cc         1 UNP      -0.099400
     26 C5           2.3580     9.9400    -7.1190 cd         1 UNP      -0.386200
     27 C4           3.1200     9.7330    -8.2940 c          1 UNP       0.673700
     28 N3           4.3770     9.2570    -8.1930 ns         1 UNP      -0.574500
     29 O4           2.6420     9.9770    -9.3860 o          1 UNP      -0.741500
     30 HN2B         2.9350     1.3620    -1.2440 hn         1 UNP       0.353800
     31 H5'          3.4780     8.1230    -0.4390 h1         1 UNP       0.027700
     32 H5'A         2.2950     8.3310    -1.7380 h1         1 UNP       0.027700
     33 H4'          5.2260     7.6380    -2.2140 h1         1 UNP       0.079700
     34 H3'          3.7850    10.2650    -1.8980 h1         1 UNP       0.044700
     35 HO3'         5.5760    10.5770    -0.7780 ho         1 UNP       0.382000
     36 H2'          4.2470    10.9240    -4.0520 h1         1 UNP       0.041700
     37 HO2'         6.2780    11.5930    -3.9980 ho         1 UNP       0.377000
     38 H1'          5.7540     8.3940    -4.6830 h2         1 UNP       0.109700
     39 H6           2.3130     9.7180    -5.0190 h4         1 UNP       0.164000
     40 H5           1.2970    10.1460    -7.1900 ha         1 UNP       0.145000
     41 HN3          4.9210     9.1040    -9.0190 hn         1 UNP       0.323500
@<TRIPOS>BOND
     1     1     2 1
     2     2     3 1
     3     2     4 1
     4     2     5 1
     5     5     6 1
     6     6     7 1
     7     6     8 1
     8     6     9 1
     9     9    10 1
    10    10    11 1
    11    10    12 1
    12    10    13 1
    13    13    14 1
    14    14    15 1
    15    15    16 1
    16    15    20 1
    17    16    17 1
    18    16    18 1
    19    18    19 1
    20    18    21 1
    21    20    21 1
    22    21    22 1
    23    22    23 1
    24    22    25 1
    25    23    24 2
    26    23    28 1
    27    25    26 2
    28    26    27 1
    29    27    28 1
    30    27    29 2
    31     5    30 1
    32    14    31 1
    33    14    32 1
    34    15    33 1
    35    16    34 1
    36    17    35 1
    37    18    36 1
    38    19    37 1
    39    21    38 1
    40    25    39 1
    41    26    40 1
    42    28    41 1
@<TRIPOS>SUBSTRUCTURE
     1 UNP         1 TEMP              0 ****  ****    0 ROOT
