@<TRIPOS>MOLECULE
UNP
   42    42     1     0     0
SMALL
bcc


@<TRIPOS>ATOM
      1 O2G        -0.1860    0.0990    0.2990 o         1 UNP     -1.149333
      2 PG          1.2200   -0.1830    0.6560 p3        1 UNP      2.440000
      3 O3G         1.5380   -0.6440    2.0230 o         1 UNP     -1.149333
      4 O1G         2.1960   -0.4170   -0.4290 o         1 UNP     -1.149333
      5 N2B         1.6770    2.3660    0.3190 n3        1 UNP     -0.983000
      6 PB          2.1790    3.7460    0.9990 p5        1 UNP      2.086000
      7 O1B         1.2090    4.2530    2.0030 o         1 UNP     -0.877000
      8 O3B         3.6330    3.7180    1.2910 o         1 UNP     -0.877000
      9 O3A         2.0340    4.8900   -0.2780 os        1 UNP     -1.285000
     10 PA          1.9460    6.0880   -1.2910 p5        1 UNP      2.088000
     11 O1A         0.6930    6.1700   -2.0720 o         1 UNP     -0.915500
     12 O2A         2.5620    7.3650   -0.8230 o         1 UNP     -0.915500
     13 O5'         3.1060    5.6600   -2.4640 os        1 UNP     -0.721000
     14 C5'         3.2610    6.5880   -3.4670 c3        1 UNP      0.075000
     15 C4'         4.5410    7.4240   -3.2480 c3        1 UNP     -0.062000
     16 C3'         4.3110    8.7420   -2.4830 c3        1 UNP      0.015000
     17 O3'         4.9320    8.7140   -1.2210 oh        1 UNP     -0.390000
     18 C2'         4.9870    9.8410   -3.3350 c3        1 UNP     -0.007000
     19 O2'         6.2050   10.3320   -2.8230 oh        1 UNP     -0.338000
     20 O4'         5.1310    7.7460   -4.5330 os        1 UNP     -0.285000
     21 C1'         5.2780    9.1450   -4.7060 c3        1 UNP      0.116000
     22 N1          4.3850    9.6110   -5.7850 n         1 UNP     -0.262000
     23 C2          4.9350   10.3060   -6.8860 c2        1 UNP      0.395000
     24 O2          6.1520   10.5970   -6.9710 o         1 UNP     -0.397000
     25 C6          3.0450    9.2680   -5.7960 c2        1 UNP      0.086000
     26 C5          2.2000    9.6450   -6.7980 c2        1 UNP     -0.345000
     27 C4          2.6970   10.4100   -7.9360 c2        1 UNP      0.359000
     28 N3          4.0710   10.7100   -7.9220 n         1 UNP     -0.378000
     29 O4          2.0180   10.8140   -8.9020 o         1 UNP     -0.398000
     30 HN2B        0.7150    2.2470    0.1050 hn        1 UNP      0.206000
     31 H5'         3.3770    6.0490   -4.4520 h1        1 UNP      0.046000
     32 H5'A        2.3600    7.2650   -3.5220 h1        1 UNP      0.046000
     33 H4'         5.3040    6.7900   -2.7180 h1        1 UNP      0.139000
     34 H3'         3.2130    8.9580   -2.3660 h1        1 UNP      0.144000
     35 HO3'        4.3320    8.1990   -0.6350 ho        1 UNP      0.312000
     36 H2'         4.3250   10.7390   -3.4460 h1        1 UNP      0.104000
     37 HO2'        6.5320    9.6980   -2.1690 ho        1 UNP      0.234000
     38 H1'         6.3400    9.3290   -5.0430 h2        1 UNP      0.148000
     39 H6          2.7090    8.6600   -4.9240 h4        1 UNP      0.215000
     40 H5          1.1370    9.3800   -6.7920 ha        1 UNP      0.179000
     41 HN3         4.4800   11.2040   -8.6820 hn        1 UNP      0.242000
     42 H2B2        2.2550    1.9100   -0.3460 hn        1 UNP      0.206000
@<TRIPOS>BOND
     1    1    2 1   
     2    2    3 1   
     3    2    4 1   
     4    5    6 1   
     5    5   30 1   
     6    5   42 1   
     7    6    7 1   
     8    6    8 1   
     9    6    9 1   
    10    9   10 1   
    11   10   11 1   
    12   10   12 1   
    13   10   13 1   
    14   13   14 1   
    15   14   15 1   
    16   14   31 1   
    17   14   32 1   
    18   15   16 1   
    19   15   20 1   
    20   15   33 1   
    21   16   17 1   
    22   16   18 1   
    23   16   34 1   
    24   17   35 1   
    25   18   19 1   
    26   18   21 1   
    27   18   36 1   
    28   19   37 1   
    29   20   21 1   
    30   21   22 1   
    31   21   38 1   
    32   22   23 1   
    33   22   25 1   
    34   23   24 1   
    35   23   28 1   
    36   25   26 1   
    37   25   39 1   
    38   26   27 1   
    39   26   40 1   
    40   27   28 1   
    41   27   29 1   
    42   28   41 1   
@<TRIPOS>SUBSTRUCTURE
     1 UNP         1 TEMP              0 ****  ****    0 ROOT
