@<TRIPOS>MOLECULE
UNQ
   46    49     1     0     0
SMALL
bcc


@<TRIPOS>ATOM
      1 C01        -0.5920   -1.6810   -0.6350 cp        1 UNQ     -0.190500
      2 C02         0.1810    0.5670   -0.9160 ca        1 UNQ     -0.103800
      3 C03         0.0200   -0.7060   -1.4430 ca        1 UNQ     -0.055000
      4 C04        -0.1790    0.8040    0.4500 ca        1 UNQ      0.059100
      5 C05        -0.7670   -1.4770    0.7460 ca        1 UNQ     -0.101000
      6 C06        -0.5450   -0.2230    1.3170 ca        1 UNQ     -0.125000
      7 O07        -0.2560    2.1770    0.6880 os        1 UNQ     -0.176200
      8 C08         0.3410    1.8770   -1.5160 cc        1 UNQ     -0.235200
      9 C09        -0.0010    2.7980   -0.5500 cd        1 UNQ      0.015900
     10 C10        -0.3550    4.2620   -0.6700 c         1 UNQ      0.959800
     11 O11         0.2790    5.1330   -0.0510 o         1 UNQ     -0.813800
     12 O12        -1.3360    4.5090   -1.4560 o         1 UNQ     -0.813800
     13 C13        -1.4560   -2.6340   -1.3660 cp        1 UNQ      0.405500
     14 C14        -3.2840   -2.6150   -2.8460 ca        1 UNQ      0.488900
     15 N15        -2.3950   -1.9470   -2.0640 nb        1 UNQ     -0.717000
     16 C16        -3.2440   -4.0550   -2.8620 ca        1 UNQ      0.264900
     17 C17        -1.4380   -4.0490   -1.4090 ca        1 UNQ      0.270900
     18 N18        -2.3350   -4.7400   -2.1490 nb        1 UNQ     -0.613000
     19 N19        -4.1480   -1.8530   -3.6870 nh        1 UNQ     -0.787900
     20 C20        -4.0260   -0.4090   -3.5080 c3        1 UNQ      0.173500
     21 C21        -4.5190    0.4590   -4.6710 c3        1 UNQ     -0.085400
     22 C22        -3.8890    1.8350   -4.5050 c3        1 UNQ     -0.097400
     23 C23        -4.1830    2.4720   -3.1360 c3        1 UNQ      0.129500
     24 C24        -4.0430    1.5090   -1.9490 c3        1 UNQ     -0.097400
     25 C25        -4.6780    0.1690   -2.2390 c3        1 UNQ     -0.085400
     26 N26        -3.3020    3.6630   -2.9070 n4        1 UNQ     -0.852600
     27 H03         0.2470   -0.9110   -2.4980 ha        1 UNQ      0.139000
     28 H05        -1.1530   -2.2950    1.3710 ha        1 UNQ      0.136000
     29 H06        -0.7150   -0.0380    2.3850 ha        1 UNQ      0.153000
     30 H08         0.6490    2.0750   -2.5370 ha        1 UNQ      0.159000
     31 H16        -3.9510   -4.6460   -3.4660 h4        1 UNQ      0.036100
     32 H17        -0.6950   -4.6400   -0.8490 h4        1 UNQ      0.044100
     33 HN19       -5.0910   -2.1830   -3.6490 hn        1 UNQ      0.392800
     34 H20        -2.9090   -0.1990   -3.4500 h1        1 UNQ      0.094700
     35 H21        -5.6350    0.5320   -4.6770 hc        1 UNQ      0.062450
     36 H21A       -4.1970    0.0310   -5.6560 hc        1 UNQ      0.062450
     37 H22        -2.7780    1.7350   -4.6490 hc        1 UNQ      0.070950
     38 H22A       -4.2770    2.5120   -5.3110 hc        1 UNQ      0.070950
     39 H23        -5.2490    2.8540   -3.1580 hx        1 UNQ      0.080700
     40 H24        -2.9580    1.3440   -1.7000 hc        1 UNQ      0.070950
     41 H24A       -4.5280    1.9690   -1.0470 hc        1 UNQ      0.070950
     42 H25        -4.5150   -0.4990   -1.3540 hc        1 UNQ      0.062450
     43 H25A       -5.7840    0.2740   -2.3830 hc        1 UNQ      0.062450
     44 HN26       -3.6240    4.2130   -2.1010 hn        1 UNQ      0.472133
     45 HN2A       -2.3170    3.3850   -2.6510 hn        1 UNQ      0.472133
     46 H263       -3.2680    4.2600   -3.7290 hn        1 UNQ      0.472133
@<TRIPOS>BOND
     1    1    3 ar
     2    1    5 ar
     3    1   13 1
     4    2    3 ar
     5    2    4 ar
     6    2    8 1
     7    3   27 1
     8    4    6 ar
     9    4    7 1
    10    5    6 ar
    11    5   28 1
    12    6   29 1
    13    7    9 1
    14    8    9 2
    15    8   30 1
    16    9   10 1
    17   10   11 1
    18   10   12 1
    19   13   15 ar
    20   13   17 ar
    21   14   15 ar
    22   14   16 ar
    23   14   19 1
    24   16   18 ar
    25   16   31 1
    26   17   18 ar
    27   17   32 1
    28   19   20 1
    29   19   33 1
    30   20   21 1
    31   20   25 1
    32   20   34 1
    33   21   22 1
    34   21   35 1
    35   21   36 1
    36   22   23 1
    37   22   37 1
    38   22   38 1
    39   23   24 1
    40   23   26 1
    41   23   39 1
    42   24   25 1
    43   24   40 1
    44   24   41 1
    45   25   42 1
    46   25   43 1
    47   26   44 1
    48   26   45 1
    49   26   46 1
@<TRIPOS>SUBSTRUCTURE
     1 UNQ         1 TEMP              0 ****  ****    0 ROOT
