@<TRIPOS>MOLECULE
molecule
   28    28     1     0     0
SMALL
bcc


@<TRIPOS>ATOM
      1 C1           0.0000     0.0000     0.0000 c3         1 UNR      -0.171600
      2 P1           1.8230     0.0000     0.0000 p5         1 UNR       1.082200
      3 O2          -0.4760     0.0000     1.3480 oh         1 UNR      -0.627800
      4 C3          -0.5100     1.2490    -0.7210 c3         1 UNR       0.026900
      5 P4          -0.6070    -1.4890    -0.8590 p5         1 UNR       1.082200
      6 O5          -0.0180    -1.5520    -2.2150 o          1 UNR      -0.871833
      7 O6          -0.1820    -2.8000    -0.0270 o          1 UNR      -0.871833
      8 O7          -2.2130    -1.4240    -0.9750 o          1 UNR      -0.871833
      9 O8           2.3600    -0.1790    -1.5080 o          1 UNR      -0.871833
     10 O9           2.3600     1.3940     0.5990 o          1 UNR      -0.871833
     11 O10          2.3170    -1.1180     0.8350 o          1 UNR      -0.871833
     12 C17          1.1050     1.7130    -2.5890 ca         1 UNR      -0.017000
     13 C18          0.5390     1.0470    -4.8110 ca         1 UNR      -0.144300
     14 C23         -0.9480     0.6110    -3.1070 ca         1 UNR      -0.002300
     15 C25          1.4310     1.6350    -3.9340 ca         1 UNR      -0.146000
     16 N26         -0.6110     0.5650    -4.3810 na         1 UNR       0.002900
     17 C27         -0.1100     1.1890    -2.1730 ca         1 UNR      -0.050300
     18 HO2         -0.0970    -0.7260     1.8150 ho         1 UNR       0.409000
     19 H3          -1.5890     1.2950    -0.6450 hc         1 UNR       0.024200
     20 H3A         -0.0780     2.1320    -0.2640 hc         1 UNR       0.024200
     21 H17          1.7840     2.1690    -1.8790 ha         1 UNR       0.189000
     22 H18          0.7860     0.9820    -5.8630 h4         1 UNR       0.099000
     23 H22         -1.1910    -1.0650    -5.5580 h1         1 UNR       0.035033
     24 H22A        -1.5420     0.5230    -6.2540 h1         1 UNR       0.035033
     25 H22B        -2.5230    -0.0930    -4.9170 h1         1 UNR       0.035033
     26 H23         -1.9010     0.2030    -2.7920 h4         1 UNR       0.212000
     27 H25          2.3720     2.0320    -4.2940 ha         1 UNR       0.107000
     28 C22         -1.5260    -0.0580    -5.3400 c3         1 UNR       0.025600
@<TRIPOS>BOND
     1     4     1 1
     2     2     1 1
     3     1     3 1
     4     1     5 1
     5    11     2 1
     6    10     2 1
     7     2     9 1
     8     3    18 1
     9     4    17 1
    10     4    19 1
    11     4    20 1
    12     6     5 1
    13     5     7 1
    14     5     8 1
    15    17    12 ar
    16    12    15 ar
    17    12    21 1
    18    16    13 2
    19    13    15 ar
    20    13    22 1
    21    28    16 1
    22    28    23 1
    23    28    24 1
    24    28    25 1
    25    14    16 1
    26    14    17 ar
    27    14    26 1
    28    15    27 1
@<TRIPOS>SUBSTRUCTURE
     1 UNR         1 TEMP              0 ****  ****    0 ROOT
