@<TRIPOS>MOLECULE
UNR
   28    27     1     0     0
SMALL
bcc


@<TRIPOS>ATOM
      1 C1         -0.0230   -1.9200    0.2030 c         1 UNR      0.251100
      2 P1          0.9810   -0.7310   -0.6930 p5        1 UNR      1.246400
      3 O2         -0.8470   -1.2950    0.9190 o         1 UNR     -0.578100
      4 C3         -1.4780    3.1310   -1.6200 c2        1 UNR     -0.548000
      5 P4         -0.2110   -3.6660    0.5350 p5        1 UNR      1.256400
      6 O5         -0.5780   -4.4780   -0.6450 o         1 UNR     -0.860500
      7 O6          0.8510   -4.0880    1.4830 o         1 UNR     -0.860500
      8 O7         -1.5790   -3.6620    1.4590 oh        1 UNR     -0.793400
      9 O8         -0.1760    0.1720   -1.4610 os        1 UNR     -0.568200
     10 O9          1.6850    0.1190    0.2990 o         1 UNR     -0.860000
     11 O10         1.7610   -1.3880   -1.7680 o         1 UNR     -0.860000
     12 C17         0.3040    1.4440   -1.8160 c3        1 UNR      0.208600
     13 C18         0.7460    2.2330   -5.5330 c1        1 UNR     -0.020300
     14 C23        -0.8990    2.3980   -3.8430 ce        1 UNR     -0.236500
     15 C25         1.5040    2.7900   -6.2930 c1        1 UNR     -0.461500
     16 N26        -0.2700    1.6400   -4.8560 nh        1 UNR     -0.050100
     17 C27        -0.7420    2.3290   -2.4540 ce        1 UNR      0.008200
     18 HO2        -1.6540   -2.9020    2.0210 ho        1 UNR      0.417000
     19 H3         -1.3940    3.0620   -0.5350 ha        1 UNR      0.055000
     20 H3A        -2.2260    3.8270   -2.0030 ha        1 UNR      0.055000
     21 H17         0.6920    1.9390   -0.8780 h1        1 UNR      0.008200
     22 H18         2.1960    3.2770   -6.9130 ha        1 UNR      0.118500
     23 H22        -0.2840   -0.3380   -5.5470 h1        1 UNR      0.039033
     24 H22A        0.9620   -0.0350   -4.2530 h1        1 UNR      0.039033
     25 H22B       -0.7920   -0.0980   -3.7940 h1        1 UNR      0.039033
     26 H23        -1.6250    3.1030   -4.2670 h4        1 UNR     -0.047200
     27 H25         1.1800    1.2970   -2.5110 h1        1 UNR      0.008200
     28 C22        -0.0750    0.2240   -4.5960 c3        1 UNR     -0.004400
@<TRIPOS>BOND
     1    1    2 1   
     2    1    3 2   
     3    1    5 1   
     4    2    9 1   
     5    2   10 1   
     6    2   11 1   
     7    4   17 2   
     8    4   19 1   
     9    4   20 1   
    10    5    6 1   
    11    5    7 1   
    12    5    8 1   
    13    8   18 1   
    14    9   12 1   
    15   12   17 1   
    16   12   21 1   
    17   12   27 1   
    18   13   15 3   
    19   13   16 1   
    20   14   16 2   
    21   14   17 1   
    22   14   26 1   
    23   15   22 1   
    24   16   28 1   
    25   23   28 1   
    26   24   28 1   
    27   25   28 1   
@<TRIPOS>SUBSTRUCTURE
     1 UNR         1 TEMP              0 ****  ****    0 ROOT
