@<TRIPOS>MOLECULE
UNT
   54    57     1     0     0
SMALL
bcc


@<TRIPOS>ATOM
      1 O1          0.1690   -2.1830    0.1470 o         1 UNT     -0.807300
      2 C2          0.6070   -1.0000    0.0970 c         1 UNT      0.923600
      3 O3          0.3530   -0.1490   -0.7840 o         1 UNT     -0.807300
      4 C4          1.5790   -0.6400    1.2900 c3        1 UNT     -0.062000
      5 N5          2.2100    0.6990    1.1810 na        1 UNT      0.315900
      6 N6          3.4080    0.8780    0.6020 nc        1 UNT     -0.501800
      7 C7          3.5880    2.2280    0.5360 cd        1 UNT      0.158900
      8 C8          2.4090    2.8450    1.1030 cd        1 UNT      0.158900
      9 N9          1.5710    1.8390    1.4830 nc        1 UNT     -0.501800
     10 C10         0.8110   -0.8280    2.6000 c3        1 UNT     -0.051100
     11 C11         1.6930   -0.8600    3.7960 ca        1 UNT     -0.052300
     12 C12         2.5000   -1.9780    4.0470 ca        1 UNT     -0.126500
     13 C13         3.3240   -2.0200    5.1680 ca        1 UNT     -0.132000
     14 C14         3.3570   -0.9460    6.0640 ca        1 UNT     -0.108300
     15 C15         2.5480    0.1690    5.8190 ca        1 UNT     -0.132000
     16 C16         1.7250    0.2120    4.6970 ca        1 UNT     -0.126500
     17 C17         4.2410   -0.9870    7.2600 c3        1 UNT     -0.026100
     18 C18         5.3970   -0.0120    7.1300 c3        1 UNT     -0.079400
     19 C19         6.3760   -0.1780    8.2770 c3        1 UNT     -0.103700
     20 C20         7.5350    0.7340    8.1480 cc        1 UNT      0.246300
     21 N21         7.9280    1.6370    9.1540 nc        1 UNT     -0.658000
     22 C22         9.0130    2.2650    8.6890 cd        1 UNT      0.531900
     23 O23         9.3700    1.8170    7.3990 os        1 UNT     -0.384800
     24 C24         8.4190    0.8450    7.0720 cd        1 UNT      0.171700
     25 C25         8.5440    0.2080    5.7620 c3        1 UNT     -0.130400
     26 C26         9.8450    3.2970    9.2820 ca        1 UNT     -0.122500
     27 C27        10.9400    3.8160    8.5750 ca        1 UNT     -0.094500
     28 C28        11.7320    4.8060    9.1500 ca        1 UNT     -0.140000
     29 C29        11.4400    5.2850   10.4270 ca        1 UNT     -0.119000
     30 C30        10.3510    4.7710   11.1310 ca        1 UNT     -0.140000
     31 C31         9.5510    3.7800   10.5650 ca        1 UNT     -0.094500
     32 H4          2.4210   -1.3910    1.2520 h1        1 UNT      0.070700
     33 H7          4.4750    2.6930    0.1190 h4        1 UNT      0.028600
     34 H8          2.1750    3.8970    1.2250 h4        1 UNT      0.028600
     35 H10         0.0260   -0.0340    2.7110 hc        1 UNT      0.081700
     36 H10A        0.2770   -1.8160    2.4960 hc        1 UNT      0.081700
     37 H12         2.4810   -2.8240    3.3420 ha        1 UNT      0.141000
     38 H13         3.9540   -2.9030    5.3490 ha        1 UNT      0.117500
     39 H15         2.5690    1.0180    6.5170 ha        1 UNT      0.117500
     40 H16         1.1030    1.0990    4.5030 ha        1 UNT      0.141000
     41 H17         4.6440   -2.0250    7.4050 hc        1 UNT      0.038700
     42 H17A        3.6440   -0.7320    8.1770 hc        1 UNT      0.038700
     43 H18         5.9270   -0.1840    6.1560 hc        1 UNT      0.051700
     44 H18A        5.0020    1.0370    7.1130 hc        1 UNT      0.051700
     45 H19         6.7600   -1.2350    8.2940 hc        1 UNT      0.055700
     46 H19A        5.8430   -0.0010    9.2510 hc        1 UNT      0.055700
     47 H25         7.8770    0.7210    5.0220 hc        1 UNT      0.065033
     48 H25A        8.2360   -0.8650    5.8350 hc        1 UNT      0.065033
     49 H25B        9.5980    0.2650    5.3910 hc        1 UNT      0.065033
     50 H27        11.1660    3.4370    7.5660 ha        1 UNT      0.153000
     51 H28        12.5890    5.2110    8.5920 ha        1 UNT      0.133000
     52 H29        12.0670    6.0680   10.8780 ha        1 UNT      0.129000
     53 H30        10.1190    5.1490   12.1380 ha        1 UNT      0.133000
     54 H31         8.6910    3.3790   11.1230 ha        1 UNT      0.153000
@<TRIPOS>BOND
     1    1    2 1   
     2    2    3 1   
     3    2    4 1   
     4    4    5 1   
     5    4   10 1   
     6    4   32 1   
     7    5    6 1   
     8    5    9 1   
     9    6    7 2   
    10    7    8 1   
    11    7   33 1   
    12    8    9 2   
    13    8   34 1   
    14   10   11 1   
    15   10   35 1   
    16   10   36 1   
    17   11   12 ar  
    18   11   16 ar  
    19   12   13 ar  
    20   12   37 1   
    21   13   14 ar  
    22   13   38 1   
    23   14   15 ar  
    24   14   17 1   
    25   15   16 ar  
    26   15   39 1   
    27   16   40 1   
    28   17   18 1   
    29   17   41 1   
    30   17   42 1   
    31   18   19 1   
    32   18   43 1   
    33   18   44 1   
    34   19   20 1   
    35   19   45 1   
    36   19   46 1   
    37   20   21 1   
    38   20   24 2   
    39   21   22 2   
    40   22   23 1   
    41   22   26 1   
    42   23   24 1   
    43   24   25 1   
    44   25   47 1   
    45   25   48 1   
    46   25   49 1   
    47   26   27 ar  
    48   26   31 ar  
    49   27   28 ar  
    50   27   50 1   
    51   28   29 ar  
    52   28   51 1   
    53   29   30 ar  
    54   29   52 1   
    55   30   31 ar  
    56   30   53 1   
    57   31   54 1   
@<TRIPOS>SUBSTRUCTURE
     1 UNT         1 TEMP              0 ****  ****    0 ROOT
