@<TRIPOS>MOLECULE
UNU
   17    17     1     0     0
SMALL
bcc


@<TRIPOS>ATOM
      1 O08          0.0000     0.0000     0.0000 o          1 UNU      -0.428100
      2 C07          1.2160     0.0000     0.0000 c          1 UNU       0.357700
      3 N09          1.8910     0.0000     1.1670 nz         1 UNU       0.200600
      4 C06          1.9540    -0.0050    -1.2810 ca         1 UNU      -0.242600
      5 C01          1.2580    -0.0110    -2.4910 ca         1 UNU      -0.031000
      6 C05          3.3500     0.0010    -1.2860 ca         1 UNU      -0.031000
      7 C04          4.0330    -0.0050    -2.4850 ca         1 UNU      -0.084000
      8 C03          3.3370    -0.0160    -3.6800 ca         1 UNU      -0.005000
      9 C02          1.9530    -0.0170    -3.6830 ca         1 UNU      -0.084000
     10 H091         2.4650     0.8180     1.2200 hn         1 UNU       0.247133
     11 H092         2.4680    -0.8160     1.2190 hn         1 UNU       0.247133
     12 H01          0.1750    -0.0120    -2.4950 ha         1 UNU       0.107500
     13 H05          3.8960     0.0100    -0.3510 ha         1 UNU       0.107500
     14 H04          5.1160    -0.0020    -2.4900 ha         1 UNU       0.131500
     15 H03          3.8780    -0.0210    -4.6190 ha         1 UNU       0.127000
     16 H02          1.4150    -0.0240    -4.6230 ha         1 UNU       0.131500
     17 H093         1.2410    -0.0020     1.9280 hn         1 UNU       0.247133
@<TRIPOS>BOND
     1     1     2 2   
     2     2     3 1   
     3     2     4 1   
     4     3    10 1   
     5     3    11 1   
     6     3    17 1   
     7     4     5 ar  
     8     4     6 ar  
     9     5     9 ar  
    10     5    12 1   
    11     6     7 ar  
    12     6    13 1   
    13     7     8 ar  
    14     7    14 1   
    15     8     9 ar  
    16     8    15 1   
    17     9    16 1   
@<TRIPOS>SUBSTRUCTURE
     1 UNU         1 TEMP              0 ****  ****    0 ROOT
