@<TRIPOS>MOLECULE
UNV
   24    22     1     0     0
SMALL
bcc


@<TRIPOS>ATOM
      1 N1        249.3760  123.8010 -326.9520 n2        1 UNV     -0.249000
      2 C2        248.8640  124.5310 -329.6690 c2        1 UNV     -0.247000
      3 C3        250.1990  124.8750 -329.1170 c3        1 UNV     -0.117000
      4 C4        247.9520  123.9050 -328.9110 c2        1 UNV     -0.136000
      5 C5        248.2430  123.5390 -327.5080 c1        1 UNV     -0.318000
      6 C6        250.4030  124.4580 -327.6730 c2        1 UNV     -0.005000
      7 C7       -226.8860 -616.6910  340.6030 c1        1 UNV     -0.468000
      8 C10       251.6060  124.7470 -327.1250 c2        1 UNV     -0.362000
      9 C14      -227.2100 -615.5770  340.9370 c1        1 UNV     -0.445000
     10 P17      -421.6760  669.4620  484.3550 p3        1 UNV      2.361000
     11 O18      -228.5530 -614.1730  342.6470 o         1 UNV     -0.950500
     12 O19      -226.3670 -613.2560  341.7130 o         1 UNV     -0.950500
     13 O20      -228.4250 -613.4080  340.2200 o         1 UNV     -0.950500
     14 O21      -420.2630  669.2850  483.9760 o         1 UNV     -1.120000
     15 O22      -422.6230  670.0720  483.4040 o         1 UNV     -1.120000
     16 O23      -422.1430  669.0300  485.6840 o         1 UNV     -1.120000
     17 H2        250.9930  124.3910 -329.7500 hc        1 UNV      0.059000
     18 H4        248.6940  124.8230 -330.7150 ha        1 UNV      0.069000
     19 H5        246.9570  123.6370 -329.2910 ha        1 UNV      0.089000
     20 H7        250.3520  125.9870 -329.1980 hc        1 UNV      0.059000
     21 H7A      -226.6020 -617.6640  340.3110 ha        1 UNV      0.129000
     22 H10       252.3890  125.2560 -327.6960 ha        1 UNV      0.079500
     23 H10A      251.8620  124.4930 -326.0920 ha        1 UNV      0.079500
     24 P11      -227.6890 -613.9320  341.4310 p5        1 UNV      1.636500
@<TRIPOS>BOND
     1    1    5 1   
     2    1    6 1   
     3    2    3 1   
     4    2    4 1   
     5    2   18 1   
     6    3    6 1   
     7    3   17 1   
     8    3   20 1   
     9    4    5 1   
    10    4   19 1   
    11    6    8 1   
    12    7    9 1   
    13    7   21 1   
    14    8   22 1   
    15    8   23 1   
    16    9   24 1   
    17   10   14 1   
    18   10   15 1   
    19   10   16 1   
    20   11   24 1   
    21   12   24 1   
    22   13   24 1   
@<TRIPOS>SUBSTRUCTURE
     1 UNV         1 TEMP              0 ****  ****    0 ROOT
