@<TRIPOS>MOLECULE
molecule
   24    25     1     0     0
SMALL
bcc


@<TRIPOS>ATOM
      1 N1           0.0000     0.0000     0.0000 nb         1 UNV      -0.744000
      2 C2           1.3290     0.0010     2.3840 ca         1 UNV      -0.145000
      3 C3          -0.0590     0.0010     2.3450 ca         1 UNV      -0.098600
      4 C4           2.0250     0.0000     1.1860 ca         1 UNV      -0.322300
      5 C5           1.3170     0.0000     0.0000 ca         1 UNV       0.347200
      6 C6          -0.7010     0.0010     1.1230 ca         1 UNV       0.485600
      7 C7          -1.0760     0.0010     3.4640 c3         1 UNV       0.021900
      8 C10         -2.2010     0.0020     1.3370 c3         1 UNV      -0.062700
      9 C14         -2.4010    -0.4380     2.8030 c3         1 UNV      -0.341400
     10 P17         -3.8180     0.4300     3.5530 p5         1 UNV       1.127200
     11 O18         -3.7600    -2.7150     1.8870 o          1 UNV      -0.947333
     12 O19         -1.2250    -2.9720     2.5390 o          1 UNV      -0.947333
     13 O20         -3.0050    -2.6120     4.2930 o          1 UNV      -0.947333
     14 O21         -3.5130     2.0100     3.6040 o          1 UNV      -0.947333
     15 O22         -5.1370     0.1660     2.6690 o          1 UNV      -0.947333
     16 O23         -4.0350    -0.0750     4.9270 o          1 UNV      -0.947333
     17 H2           1.8560     0.0010     3.3310 ha         1 UNV       0.085000
     18 H4           3.1090     0.0000     1.1800 ha         1 UNV       0.050000
     19 H5           1.8520    -0.0010    -0.9420 h4         1 UNV      -0.063900
     20 H7          -1.1820     1.0040     3.8590 hc         1 UNV       0.050200
     21 H7A         -0.7880    -0.7230     4.2170 hc         1 UNV       0.050200
     22 H10         -2.6750    -0.7040     0.6660 hc         1 UNV       0.059200
     23 H10A        -2.6000     0.9980     1.1870 hc         1 UNV       0.059200
     24 P11         -2.6120    -2.2450     2.9130 p5         1 UNV       1.127200
@<TRIPOS>BOND
     1     1     5 ar
     2     1     6 ar
     3     4     2 ar
     4     3     2 ar
     5     2    17 1
     6     6     3 ar
     7     3     7 1
     8     5     4 ar
     9     4    18 1
    10     5    19 1
    11     8     6 1
    12     9     7 1
    13     7    20 1
    14     7    21 1
    15     8     9 1
    16     8    22 1
    17     8    23 1
    18    13    24 1
    19     9    24 1
    20    24    11 1
    21    24    12 1
    22    10     9 1
    23    16    10 1
    24    14    10 1
    25    10    15 1
@<TRIPOS>SUBSTRUCTURE
     1 UNV         1 TEMP              0 ****  ****    0 ROOT
