@<TRIPOS>MOLECULE
molecule
   42    44     1     0     0
SMALL
bcc


@<TRIPOS>ATOM
      1 C01          0.0000     0.0000     0.0000 c3         1 UO1      -0.171100
      2 C02          1.5070     0.0000     0.0000 c          1 UO1       0.669100
      3 O03          2.1130     0.0000     1.0510 o          1 UO1      -0.554100
      4 N04          2.1810     0.0010    -1.1660 n          1 UO1      -0.224200
      5 C05          1.6020     0.0070    -2.4180 cc         1 UO1      -0.076400
      6 C06          2.5600     0.0120    -3.3630 cd         1 UO1       0.014400
      7 N07          2.3620     0.0200    -4.7530 n          1 UO1      -0.306200
      8 C08          2.2670    -1.1440    -5.4260 c          1 UO1       0.668100
      9 C09          2.3730    -2.4530    -4.6880 c3         1 UO1      -0.165100
     10 O10          2.0950    -1.1370    -6.6280 o          1 UO1      -0.586100
     11 C11          2.2630     1.2360    -5.4390 ca         1 UO1       0.070600
     12 C12          1.0240     1.8420    -5.6050 ca         1 UO1      -0.079300
     13 C13         -0.2150     1.1910    -5.0460 c3         1 UO1      -0.045800
     14 C14          0.9260     3.0420    -6.2820 ca         1 UO1      -0.112000
     15 C15          2.0610     3.6430    -6.7960 ca         1 UO1      -0.143000
     16 C16          3.3000     3.0420    -6.6330 ca         1 UO1       0.105100
     17 C17          3.4030     1.8400    -5.9500 ca         1 UO1      -0.133000
     18 O18          4.4140     3.6330    -7.1390 oh         1 UO1      -0.521100
     19 C19          3.8540     0.0090    -2.6640 ca         1 UO1      -0.105800
     20 C20          3.5600     0.0020    -1.2910 ca         1 UO1       0.015600
     21 C21          4.5990     0.0020    -0.3690 ca         1 UO1      -0.115000
     22 C22          5.9060     0.0020    -0.8060 ca         1 UO1      -0.109000
     23 C23          6.1980     0.0030    -2.1620 ca         1 UO1      -0.141000
     24 C24          5.1820     0.0110    -3.0920 ca         1 UO1      -0.083000
     25 H1          -0.3610    -0.8650    -0.5430 hc         1 UO1       0.069700
     26 H2          -0.3610    -0.0380     1.0210 hc         1 UO1       0.069700
     27 H3          -0.3610     0.9030    -0.4770 hc         1 UO1       0.069700
     28 H4           0.5360     0.0080    -2.6120 h4         1 UO1       0.179000
     29 H5           2.1870    -3.2710    -5.3740 hc         1 UO1       0.064033
     30 H6           3.3670    -2.5520    -4.2690 hc         1 UO1       0.064033
     31 H7           1.6400    -2.4780    -3.8900 hc         1 UO1       0.064033
     32 H8          -1.0620     1.4250    -5.6790 hc         1 UO1       0.043367
     33 H9          -0.3980     1.5620    -4.0450 hc         1 UO1       0.043367
     34 H10         -0.0750     0.1170    -5.0130 hc         1 UO1       0.043367
     35 H11         -0.0410     3.5140    -6.4110 ha         1 UO1       0.137000
     36 H12          1.9810     4.5840    -7.3280 ha         1 UO1       0.142000
     37 H13          4.3710     1.3690    -5.8220 ha         1 UO1       0.147000
     38 H14          4.5640     3.3230    -8.0160 ho         1 UO1       0.421000
     39 H15          4.3820     0.0010     0.6930 ha         1 UO1       0.161000
     40 H16          6.7140    -0.0040    -0.0840 ha         1 UO1       0.138000
     41 H17          7.2300     0.0030    -2.4910 ha         1 UO1       0.135000
     42 H18          5.4130     0.0120    -4.1500 ha         1 UO1       0.137000
@<TRIPOS>BOND
     1     9     8 1
     2    10     8 2
     3     8     7 1
     4    13    12 1
     5     7    11 1
     6     7     6 1
     7    12    14 ar
     8    12    11 ar
     9    14    15 ar
    10    11    17 ar
    11     6     5 2
    12     6    19 1
    13     5     4 1
    14    19    24 ar
    15    19    20 ar
    16    24    23 ar
    17     4    20 1
    18     4     2 1
    19    15    16 ar
    20    17    16 ar
    21     1     2 1
    22    20    21 ar
    23    23    22 ar
    24     2     3 2
    25    16    18 1
    26    21    22 ar
    27     1    25 1
    28     1    26 1
    29     1    27 1
    30     5    28 1
    31     9    29 1
    32     9    30 1
    33     9    31 1
    34    13    32 1
    35    13    33 1
    36    13    34 1
    37    14    35 1
    38    15    36 1
    39    17    37 1
    40    18    38 1
    41    21    39 1
    42    22    40 1
    43    23    41 1
    44    24    42 1
@<TRIPOS>SUBSTRUCTURE
     1 UO1         1 TEMP              0 ****  ****    0 ROOT
