@<TRIPOS>MOLECULE
molecule
   34    33     1     0     0
SMALL
bcc


@<TRIPOS>ATOM
      1 CCG          0.0000     0.0000     0.0000 c3         1 UOC      -0.092100
      2 CCF          1.5300     0.0000     0.0000 c3         1 UOC      -0.084400
      3 CCE          2.0410     0.0000     1.4420 c3         1 UOC      -0.081400
      4 CCD          3.5710    -0.0010     1.4420 c3         1 UOC      -0.082400
      5 CCC          4.0810     0.0000     2.8850 c3         1 UOC      -0.082400
      6 CCB          5.6100    -0.0010     2.8840 c3         1 UOC      -0.080400
      7 CCA          6.1210    -0.0010     4.3260 c3         1 UOC      -0.084400
      8 CBZ          7.6510    -0.0010     4.3260 c3         1 UOC      -0.072400
      9 CBY          8.1610    -0.0010     5.7690 c3         1 UOC      -0.183400
     10 CBX          9.6680    -0.0020     5.7680 c          1 UOC       0.559100
     11 OCH         10.2730    -0.0020     4.7220 o          1 UOC      -0.525100
     12 CBW         10.4230    -0.0020     7.0730 c3         1 UOC      -0.197100
     13 HCG         -0.3610     0.0000    -1.0210 hc         1 UOC       0.032367
     14 HCGA        -0.3610    -0.8850     0.5100 hc         1 UOC       0.032367
     15 HCGB        -0.3610     0.8840     0.5110 hc         1 UOC       0.032367
     16 HCF          1.8910     0.8840    -0.5110 hc         1 UOC       0.039700
     17 HCFA         1.8910    -0.8840    -0.5110 hc         1 UOC       0.039700
     18 HCE          1.6800     0.8850     1.9530 hc         1 UOC       0.040700
     19 HCEA         1.6790    -0.8840     1.9530 hc         1 UOC       0.040700
     20 HCD          3.9310    -0.8860     0.9320 hc         1 UOC       0.041700
     21 HCDA         3.9330     0.8830     0.9300 hc         1 UOC       0.041700
     22 HCC          3.7190    -0.8840     3.3960 hc         1 UOC       0.040700
     23 HCCA         3.7210     0.8850     3.3950 hc         1 UOC       0.040700
     24 HCB          5.9720     0.8830     2.3730 hc         1 UOC       0.043700
     25 HCBA         5.9710    -0.8860     2.3740 hc         1 UOC       0.043700
     26 HCA          5.7600     0.8830     4.8370 hc         1 UOC       0.038700
     27 HCAA         5.7600    -0.8850     4.8370 hc         1 UOC       0.038700
     28 HBZ          8.0120    -0.8860     3.8150 hc         1 UOC       0.055700
     29 HBZA         8.0120     0.8840     3.8150 hc         1 UOC       0.055700
     30 HBY          7.8000    -0.8850     6.2800 hc         1 UOC       0.063700
     31 HBYA         7.8010     0.8840     6.2790 hc         1 UOC       0.063700
     32 HBW         10.1630     0.8840     7.6410 hc         1 UOC       0.060033
     33 HBWA        10.1600    -0.8850     7.6420 hc         1 UOC       0.060033
     34 HBWB        11.4880    -0.0040     6.8740 hc         1 UOC       0.060033
@<TRIPOS>BOND
     1     1     2 1
     2     2     3 1
     3     3     4 1
     4     4     5 1
     5     5     6 1
     6     6     7 1
     7     7     8 1
     8     8     9 1
     9     9    10 1
    10    10    11 2
    11    10    12 1
    12     1    13 1
    13     1    14 1
    14     1    15 1
    15     2    16 1
    16     2    17 1
    17     3    18 1
    18     3    19 1
    19     4    20 1
    20     4    21 1
    21     5    22 1
    22     5    23 1
    23     6    24 1
    24     6    25 1
    25     7    26 1
    26     7    27 1
    27     8    28 1
    28     8    29 1
    29     9    30 1
    30     9    31 1
    31    12    32 1
    32    12    33 1
    33    12    34 1
@<TRIPOS>SUBSTRUCTURE
     1 UOC         1 TEMP              0 ****  ****    0 ROOT
