@<TRIPOS>MOLECULE
UOC
   34    33     1     0     0
SMALL
bcc


@<TRIPOS>ATOM
      1 CCG        -0.0070    0.0010    0.0310 c3        1 UOC     -0.092100
      2 CCF         1.5000   -0.0000    0.0400 c3        1 UOC     -0.080400
      3 CCE         2.0470   -0.0000    1.4520 c3        1 UOC     -0.079400
      4 CCD         3.5600   -0.0000    1.4560 c3        1 UOC     -0.079400
      5 CCC         4.1060   -0.0010    2.8680 c3        1 UOC     -0.078400
      6 CCB         5.6200   -0.0000    2.8710 c3        1 UOC     -0.078400
      7 CCA         6.1660   -0.0030    4.2830 c3        1 UOC     -0.078400
      8 CBZ         7.6790   -0.0020    4.2830 c3        1 UOC     -0.075400
      9 CBY         8.2250   -0.0060    5.6940 c3        1 UOC     -0.182400
     10 CBX         9.7270   -0.0080    5.7360 c         1 UOC      0.563100
     11 OCH        10.4310   -0.0200    4.7220 o         1 UOC     -0.530100
     12 CBW        10.3150    0.0060    7.1120 c3        1 UOC     -0.205100
     13 HCG        -0.3890    0.0000   -1.0180 hc        1 UOC      0.032700
     14 HCGA       -0.4050   -0.9040    0.5520 hc        1 UOC      0.032700
     15 HCGB       -0.4040    0.9060    0.5510 hc        1 UOC      0.032700
     16 HCF         1.8800    0.9020   -0.5080 hc        1 UOC      0.038700
     17 HCFA        1.8790   -0.9030   -0.5070 hc        1 UOC      0.038700
     18 HCE         1.6690   -0.9030    2.0010 hc        1 UOC      0.038700
     19 HCEA        1.6690    0.9020    2.0010 hc        1 UOC      0.038700
     20 HCD         3.9380    0.9020    0.9070 hc        1 UOC      0.040700
     21 HCDA        3.9380   -0.9030    0.9060 hc        1 UOC      0.040700
     22 HCC         3.7290   -0.9040    3.4160 hc        1 UOC      0.038700
     23 HCCA        3.7280    0.9010    3.4170 hc        1 UOC      0.038700
     24 HCB         5.9970    0.9040    2.3240 hc        1 UOC      0.042700
     25 HCBA        5.9980   -0.9010    2.3200 hc        1 UOC      0.042700
     26 HCA         5.7880   -0.9070    4.8300 hc        1 UOC      0.037700
     27 HCAA        5.7870    0.8990    4.8340 hc        1 UOC      0.037700
     28 HBZ         8.0630   -0.9010    3.7320 hc        1 UOC      0.055200
     29 HBZA        8.0620    0.9010    3.7380 hc        1 UOC      0.055200
     30 HBY         7.8570    0.8970    6.2500 hc        1 UOC      0.063700
     31 HBYA        7.8560   -0.9120    6.2450 hc        1 UOC      0.063700
     32 HBW         9.9900    0.9290    7.6510 hc        1 UOC      0.062700
     33 HBWA       11.4300   -0.0130    7.0670 hc        1 UOC      0.062700
     34 HBWB        9.9590   -0.8850    7.6840 hc        1 UOC      0.062700
@<TRIPOS>BOND
     1    1    2 1   
     2    1   13 1   
     3    1   14 1   
     4    1   15 1   
     5    2    3 1   
     6    2   16 1   
     7    2   17 1   
     8    3    4 1   
     9    3   18 1   
    10    3   19 1   
    11    4    5 1   
    12    4   20 1   
    13    4   21 1   
    14    5    6 1   
    15    5   22 1   
    16    5   23 1   
    17    6    7 1   
    18    6   24 1   
    19    6   25 1   
    20    7    8 1   
    21    7   26 1   
    22    7   27 1   
    23    8    9 1   
    24    8   28 1   
    25    8   29 1   
    26    9   10 1   
    27    9   30 1   
    28    9   31 1   
    29   10   11 2   
    30   10   12 1   
    31   12   32 1   
    32   12   33 1   
    33   12   34 1   
@<TRIPOS>SUBSTRUCTURE
     1 UOC         1 TEMP              0 ****  ****    0 ROOT
