@<TRIPOS>MOLECULE
UP6
   31    32     1     0     0
SMALL
bcc


@<TRIPOS>ATOM
      1 N1         -0.2560   -0.3430   -0.0090 n         1 UP6     -0.202800
      2 C2          1.1240   -0.6330    0.2830 c         1 UP6      0.776500
      3 N3          1.6840   -0.0860    1.4630 n         1 UP6     -0.599500
      4 C4          0.9450    0.7710    2.2890 c         1 UP6      0.602200
      5 C5         -0.4510    1.0070    1.8350 cc        1 UP6      0.247200
      6 N6         -0.9600    0.4960    0.7420 nd        1 UP6     -0.333300
      7 O2          1.8220   -1.4070   -0.4040 o         1 UP6     -0.647500
      8 O4          1.4580    1.2480    3.3160 o         1 UP6     -0.639500
      9 C1'        -0.6830   -0.5620   -1.4380 c3        1 UP6      0.286500
     10 C2'        -2.2030   -0.8920   -1.5680 c3        1 UP6      0.114100
     11 C3'        -2.8190    0.4040   -2.1450 c3        1 UP6      0.134100
     12 C4'        -1.6270    1.2550   -2.6220 c3        1 UP6      0.060100
     13 O2'        -2.3230   -2.0340   -2.3920 oh        1 UP6     -0.623800
     14 O3'        -3.6600    0.0620   -3.2210 oh        1 UP6     -0.688800
     15 O4'        -0.4060    0.5790   -2.2120 os        1 UP6     -0.431600
     16 C5'        -1.6440    2.7080   -2.0900 c3        1 UP6      0.231400
     17 O5'        -2.2120    3.5450   -3.0100 os        1 UP6     -0.559200
     18 P          -3.8570    3.9900   -2.6420 p5        1 UP6      1.335900
     19 O1P        -3.7190    4.5630   -1.2620 o         1 UP6     -0.931167
     20 O2P        -4.2290    4.9100   -3.7620 o         1 UP6     -0.931167
     21 O3P        -4.4600    2.5970   -2.6760 o         1 UP6     -0.931167
     22 HN3         2.6420   -0.2730    1.6510 hn        1 UP6      0.329500
     23 H5         -1.0850    1.6760    2.4400 h4        1 UP6      0.076800
     24 H1'        -0.0290   -1.4010   -1.8130 h2        1 UP6      0.101700
     25 H2'        -2.6750   -1.1770   -0.5920 h1        1 UP6      0.071700
     26 H3'        -3.4090    0.9480   -1.3560 h1        1 UP6      0.119700
     27 H4'        -1.5810    1.2730   -3.7450 h1        1 UP6      0.077700
     28 HO2'       -2.5690   -1.7330   -3.2780 ho        1 UP6      0.432000
     29 HO3'       -4.2050    0.8720   -3.3900 ho        1 UP6      0.517000
     30 H5'1       -0.5660    3.0040   -1.9190 h1        1 UP6      0.002200
     31 H5'2       -2.1950    2.7500   -1.1080 h1        1 UP6      0.002200
@<TRIPOS>BOND
     1    1    2 1
     2    1    6 1
     3    1    9 1
     4    2    3 1
     5    2    7 2
     6    3    4 1
     7    3   22 1
     8    4    5 1
     9    4    8 2
    10    5    6 2
    11    5   23 1
    12    9   10 1
    13    9   15 1
    14    9   24 1
    15   10   11 1
    16   10   13 1
    17   10   25 1
    18   11   12 1
    19   11   14 1
    20   11   26 1
    21   12   15 1
    22   12   16 1
    23   12   27 1
    24   13   28 1
    25   14   29 1
    26   16   17 1
    27   16   30 1
    28   16   31 1
    29   17   18 1
    30   18   19 1
    31   18   20 1
    32   18   21 1
@<TRIPOS>SUBSTRUCTURE
     1 UP6         1 TEMP              0 ****  ****    0 ROOT
