@<TRIPOS>MOLECULE
UP8
   18    18     1     0     0
SMALL
bcc


@<TRIPOS>ATOM
      1 N1           0.0000     0.0000     0.0000 nv         1 UP8      -0.524200
      2 C2           1.3880     0.0000     0.0000 ca         1 UP8      -0.007400
      3 C3           2.0860     0.0000     1.2050 ca         1 UP8      -0.179000
      4 C4           3.4660    -0.0000     1.2110 ca         1 UP8      -0.180000
      5 C5           4.1750    -0.0010     0.0220 ca         1 UP8      -0.105000
      6 C6           3.5010    -0.0010    -1.1940 ca         1 UP8      -0.079600
      7 C7           4.2580    -0.0010    -2.4630 c          1 UP8       0.964200
      8 O8           3.6670    -0.0010    -3.5240 o          1 UP8      -0.883300
      9 O9           5.6050    -0.0030    -2.4440 o          1 UP8      -0.883300
     10 C10          2.0910    -0.0060    -1.2110 ca         1 UP8      -0.052600
     11 C11          1.3630    -0.0130    -2.4920 c          1 UP8       1.026200
     12 O12          1.0300    -1.1830    -3.0720 o          1 UP8      -0.911800
     13 O13          1.0640     1.0370    -3.0260 o          1 UP8      -0.911800
     14 H11N        -0.5000    -0.7970     0.3410 hn         1 UP8       0.247800
     15 H12N        -0.5000     0.7810    -0.3770 hn         1 UP8       0.247800
     16 H3           1.5430     0.0010     2.1420 ha         1 UP8       0.063000
     17 H4           3.9990     0.0000     2.1540 ha         1 UP8       0.058000
     18 H5           5.2580    -0.0010     0.0380 ha         1 UP8       0.110000
@<TRIPOS>BOND
     1     1     2 1   
     2     1    14 1   
     3     1    15 1   
     4     2     3 ar  
     5     2    10 ar  
     6     3     4 ar  
     7     3    16 1   
     8     4     5 ar  
     9     4    17 1   
    10     5     6 ar  
    11     5    18 1   
    12     6     7 1   
    13     6    10 ar  
    14     7     8 1   
    15     7     9 1   
    16    10    11 1   
    17    11    12 1   
    18    11    13 1   
@<TRIPOS>SUBSTRUCTURE
     1 UP8         1 TEMP              0 ****  ****    0 ROOT
