@<TRIPOS>MOLECULE
molecule
   41    42     1     0     0
SMALL
bcc


@<TRIPOS>ATOM
      1 N1           0.0000     0.0000     0.0000 n          1 UPC      -0.341000
      2 C2           1.3460     0.0000     0.0000 c          1 UPC       0.808500
      3 O2           1.9460     0.0000    -1.0570 o          1 UPC      -0.656500
      4 N3           2.0370     0.0000     1.1550 ns         1 UPC      -0.571500
      5 C4           1.3870    -0.0010     2.3370 c          1 UPC       0.686700
      6 O4           2.0120    -0.0010     3.3820 o          1 UPC      -0.738500
      7 C5          -0.0280    -0.0010     2.3510 cc         1 UPC      -0.393200
      8 C6          -0.6970    -0.0000     1.1770 cd         1 UPC      -0.099400
      9 PA           0.7810    -3.8940    -5.4000 p5         1 UPC       1.152600
     10 PB           0.6720    -6.7510    -6.2300 p5         1 UPC       1.299600
     11 PG           0.0470    -9.6110    -6.6910 p5         1 UPC       1.327900
     12 C1'         -0.7250     0.0070    -1.2730 c3         1 UPC       0.318500
     13 O1A          0.8060    -3.4460    -6.9460 o          1 UPC      -0.807000
     14 O1B          2.1810    -6.9600    -5.7080 o          1 UPC      -0.808500
     15 O1G         -0.3950    -9.6180    -8.2390 o          1 UPC      -0.858167
     16 C2'         -0.4400     1.3180    -2.0310 c3         1 UPC      -0.156400
     17 O2A          2.1670    -4.0860    -4.9190 o          1 UPC      -0.807000
     18 O2B          0.6950    -6.3390    -7.6510 o          1 UPC      -0.808500
     19 O2G          1.4700   -10.0100    -6.5830 o          1 UPC      -0.858167
     20 C3'          0.1680     0.8540    -3.3770 c3         1 UPC       0.106100
     21 O3'         -0.3390     1.6330    -4.4610 oh         1 UPC      -0.604800
     22 C3A         -0.1410    -5.4590    -5.2350 c3         1 UPC      -0.422800
     23 O3B         -0.1420    -8.1330    -6.0850 os         1 UPC      -0.735800
     24 O3G         -0.8650   -10.6500    -5.8670 o          1 UPC      -0.858167
     25 C4'         -0.3270    -0.6120    -3.4690 c3         1 UPC       0.139100
     26 O4'         -0.2690    -1.0770    -2.1010 os         1 UPC      -0.356600
     27 C5'          0.6030    -1.4400    -4.3580 c3         1 UPC       0.234400
     28 O5'          0.0620    -2.7530    -4.5210 os         1 UPC      -0.593200
     29 H5          -0.5680    -0.0020     3.2900 ha         1 UPC       0.131000
     30 H6          -1.7800    -0.0000     1.1680 h4         1 UPC       0.128000
     31 H1'         -1.7890    -0.0900    -1.0970 h2         1 UPC       0.049700
     32 H2'          0.2720     1.9240    -1.4840 hc         1 UPC       0.042700
     33 H2'A        -1.3610     1.8630    -2.2010 hc         1 UPC       0.042700
     34 H3'          1.2500     0.8910    -3.3400 h1         1 UPC       0.075700
     35 HO3'         0.2840     2.3050    -4.6840 ho         1 UPC       0.382000
     36 H3A         -1.1560    -5.3180    -5.5870 hc         1 UPC       0.039700
     37 H3AA        -0.1580    -5.7600    -4.1950 hc         1 UPC       0.039700
     38 H4'         -1.3450    -0.6450    -3.8370 h1         1 UPC       0.056700
     39 H5'          1.5800    -1.5070    -3.8960 h1         1 UPC       0.039200
     40 H5'A         0.6940    -0.9640    -5.3270 h1         1 UPC       0.039200
     41 HN3          3.0380     0.0000     1.1370 hn         1 UPC       0.336500
@<TRIPOS>BOND
     1    12     1 1
     2     1     8 1
     3     1     2 1
     4     3     2 2
     5     2     4 1
     6     4     5 1
     7     7     5 1
     8     5     6 2
     9     8     7 2
    10     7    29 1
    11     8    30 1
    12    17     9 1
    13     9    22 1
    14     9    28 1
    15     9    13 1
    16    18    10 1
    17    23    10 1
    18    10    14 1
    19    10    22 1
    20    19    11 1
    21    15    11 1
    22    11    23 1
    23    11    24 1
    24    26    12 1
    25    16    12 1
    26    12    31 1
    27    20    16 1
    28    16    32 1
    29    16    33 1
    30    21    20 1
    31    25    20 1
    32    20    34 1
    33    21    35 1
    34    22    36 1
    35    22    37 1
    36    27    25 1
    37    25    26 1
    38    25    38 1
    39    27    28 1
    40    27    39 1
    41    27    40 1
    42     4    41 1
@<TRIPOS>SUBSTRUCTURE
     1 UPC         1 TEMP              0 ****  ****    0 ROOT
