@<TRIPOS>MOLECULE
molecule
  104   103     1     0     0
SMALL
bcc


@<TRIPOS>ATOM
      1 C1           0.0000     0.0000     0.0000 c3         1 UPL      -0.087100
      2 C2           1.5210     0.0000     0.0000 c3         1 UPL      -0.079400
      3 C3           2.1340     0.0000     1.4020 c3         1 UPL      -0.078400
      4 C4           3.6630    -0.0530     1.4610 c3         1 UPL      -0.076400
      5 C5           4.2170    -0.0730     2.8870 c3         1 UPL      -0.076400
      6 C6           5.7460    -0.1580     2.8850 c3         1 UPL      -0.076400
      7 C7           6.2990    -0.2160     4.3110 c3         1 UPL      -0.078400
      8 C8           7.8280    -0.2900     4.3680 c3         1 UPL      -0.077400
      9 C9           8.3800    -0.3220     5.7960 c3         1 UPL      -0.080400
     10 C10          9.9060    -0.4610     5.8580 c3         1 UPL      -0.077400
     11 C11         10.4480    -0.5670     7.2890 c3         1 UPL      -0.073400
     12 C12         10.1430     0.6690     8.1700 c3         1 UPL      -0.064700
     13 C13         10.6530     0.4650     9.6180 c3         1 UPL      -0.074400
     14 C14         10.0620    -0.7740    10.3030 c3         1 UPL      -0.079400
     15 C15         10.5280    -0.8930    11.7570 c3         1 UPL      -0.075400
     16 C16          9.8930    -2.1100    12.4340 c3         1 UPL      -0.075400
     17 C17         10.3290    -2.2990    13.8890 c3         1 UPL      -0.075400
     18 C18          9.7890    -3.5510    14.5890 c3         1 UPL      -0.074400
     19 C19         10.1720    -3.7070    16.0640 c3         1 UPL      -0.075400
     20 C20          9.5710    -4.9220    16.7810 c3         1 UPL      -0.073400
     21 C21         10.0530    -5.0680    18.2250 c3         1 UPL      -0.075400
     22 C22          9.4580    -6.2850    18.9430 c3         1 UPL      -0.076400
     23 C23          9.9570    -6.4430    20.3830 c3         1 UPL      -0.077400
     24 C24          9.3080    -7.6170    21.1210 c3         1 UPL      -0.081400
     25 C25          9.8500    -7.8240    22.5280 c3         1 UPL      -0.088100
     26 C26         10.7470     1.9460     7.5370 c3         1 UPL      -0.074400
     27 C27         10.4800     3.2580     8.2920 c3         1 UPL      -0.074400
     28 C28          9.0020     3.6000     8.5210 c3         1 UPL      -0.075400
     29 C29          8.2170     3.7830     7.2180 c3         1 UPL      -0.077400
     30 C30          6.7610     4.2050     7.4370 c3         1 UPL      -0.076400
     31 C31          5.9240     4.3850     6.1660 c3         1 UPL      -0.076400
     32 C32          4.4490     4.7450     6.3800 c3         1 UPL      -0.076400
     33 C33          3.6750     4.9580     5.0790 c3         1 UPL      -0.080400
     34 C34          2.2180     5.3010     5.3520 c3         1 UPL      -0.090100
     35 H11         -0.3610     0.0120    -1.0210 hc         1 UPL       0.033367
     36 H12         -0.3610    -0.8900     0.5000 hc         1 UPL       0.033367
     37 H13         -0.3610     0.8780     0.5210 hc         1 UPL       0.033367
     38 H21          1.8670     0.8800    -0.5290 hc         1 UPL       0.036700
     39 H22          1.8670    -0.8800    -0.5290 hc         1 UPL       0.036700
     40 H31          1.8080     0.8980     1.9130 hc         1 UPL       0.035700
     41 H32          1.7450    -0.8560     1.9400 hc         1 UPL       0.035700
     42 H41          3.9990    -0.9460     0.9460 hc         1 UPL       0.037700
     43 H42          4.0600     0.8140     0.9470 hc         1 UPL       0.037700
     44 H51          3.9130     0.8320     3.3990 hc         1 UPL       0.039700
     45 H52          3.8150    -0.9310     3.4120 hc         1 UPL       0.039700
     46 H61          6.1490     0.7130     2.3840 hc         1 UPL       0.039700
     47 H62          6.0520    -1.0490     2.3490 hc         1 UPL       0.039700
     48 H71          5.8910    -1.0900     4.8060 hc         1 UPL       0.038200
     49 H72          5.9740     0.6680     4.8460 hc         1 UPL       0.038200
     50 H81          8.1520    -1.1840     3.8510 hc         1 UPL       0.037700
     51 H82          8.2360     0.5740     3.8570 hc         1 UPL       0.037700
     52 H91          8.0960     0.5950     6.2980 hc         1 UPL       0.039200
     53 H92          7.9340    -1.1580     6.3210 hc         1 UPL       0.039200
     54 H101        10.1960    -1.3500     5.3110 hc         1 UPL       0.039200
     55 H102        10.3540     0.4020     5.3800 hc         1 UPL       0.039200
     56 H111        10.0120    -1.4410     7.7580 hc         1 UPL       0.040700
     57 H112        11.5220    -0.7000     7.2420 hc         1 UPL       0.040700
     58 H121         9.0670     0.7930     8.2100 hc         1 UPL       0.047700
     59 H131        10.3950     1.3400    10.2030 hc         1 UPL       0.039700
     60 H132        11.7310     0.3670     9.5950 hc         1 UPL       0.039700
     61 H141         8.9810    -0.7070    10.2830 hc         1 UPL       0.040200
     62 H142        10.3720    -1.6590     9.7600 hc         1 UPL       0.040200
     63 H151        11.6060    -0.9950    11.7780 hc         1 UPL       0.039700
     64 H152        10.2440     0.0030    12.2960 hc         1 UPL       0.039700
     65 H161         8.8160    -1.9980    12.4070 hc         1 UPL       0.037700
     66 H162        10.1640    -2.9970    11.8740 hc         1 UPL       0.037700
     67 H171        11.4110    -2.3380    13.9150 hc         1 UPL       0.035700
     68 H172        10.0070    -1.4320    14.4530 hc         1 UPL       0.035700
     69 H181         8.7080    -3.5360    14.5210 hc         1 UPL       0.035700
     70 H182        10.1520    -4.4200    14.0530 hc         1 UPL       0.035700
     71 H191        11.2510    -3.7770    16.1280 hc         1 UPL       0.035700
     72 H192         9.8570    -2.8150    16.5910 hc         1 UPL       0.035700
     73 H201         9.8410    -5.8170    16.2320 hc         1 UPL       0.037700
     74 H202         8.4920    -4.8260    16.7820 hc         1 UPL       0.037700
     75 H211        11.1320    -5.1600    18.2240 hc         1 UPL       0.038200
     76 H212         9.7800    -4.1750    18.7740 hc         1 UPL       0.038200
     77 H221         9.7170    -7.1780    18.3860 hc         1 UPL       0.037700
     78 H222         8.3790    -6.1860    18.9590 hc         1 UPL       0.037700
     79 H231        11.0290    -6.5940    20.3640 hc         1 UPL       0.037700
     80 H232         9.7430    -5.5300    20.9260 hc         1 UPL       0.037700
     81 H241         8.2410    -7.4390    21.1840 hc         1 UPL       0.036700
     82 H242         9.4760    -8.5210    20.5490 hc         1 UPL       0.036700
     83 H251         9.6870    -6.9270    23.1140 hc         1 UPL       0.033367
     84 H252        10.9110    -8.0360    22.4790 hc         1 UPL       0.033367
     85 H253         9.3360    -8.6570    22.9940 hc         1 UPL       0.033367
     86 H261        10.3480     2.0470     6.5350 hc         1 UPL       0.040200
     87 H262        11.8190     1.8120     7.4630 hc         1 UPL       0.040200
     88 H271        10.9660     3.1970     9.2580 hc         1 UPL       0.038200
     89 H272        10.9320     4.0680     7.7340 hc         1 UPL       0.038200
     90 H281         8.9420     4.5180     9.0940 hc         1 UPL       0.039200
     91 H282         8.5450     2.8020     9.0930 hc         1 UPL       0.039200
     92 H291         8.2280     2.8470     6.6730 hc         1 UPL       0.039200
     93 H292         8.7110     4.5390     6.6200 hc         1 UPL       0.039200
     94 H301         6.2810     3.4550     8.0540 hc         1 UPL       0.035200
     95 H302         6.7590     5.1430     7.9790 hc         1 UPL       0.035200
     96 H311         6.3790     5.1680     5.5720 hc         1 UPL       0.035700
     97 H312         5.9670     3.4620     5.6020 hc         1 UPL       0.035700
     98 H321         3.9760     3.9460     6.9370 hc         1 UPL       0.037700
     99 H322         4.3970     5.6550     6.9660 hc         1 UPL       0.037700
    100 H331         4.1310     5.7680     4.5230 hc         1 UPL       0.038700
    101 H332         3.7200     4.0520     4.4870 hc         1 UPL       0.038700
    102 H341         1.7520     4.4900     5.8980 hc         1 UPL       0.033033
    103 H342         1.6990     5.4480     4.4120 hc         1 UPL       0.033033
    104 H343         2.1650     6.2100     5.9400 hc         1 UPL       0.033033
@<TRIPOS>BOND
     1     1     2 1
     2     1    35 1
     3     1    36 1
     4     1    37 1
     5     2     3 1
     6     2    38 1
     7     2    39 1
     8     3     4 1
     9     3    40 1
    10     3    41 1
    11     4     5 1
    12     4    42 1
    13     4    43 1
    14     5     6 1
    15     5    44 1
    16     5    45 1
    17     6     7 1
    18     6    46 1
    19     6    47 1
    20     7     8 1
    21     7    48 1
    22     7    49 1
    23     8     9 1
    24     8    50 1
    25     8    51 1
    26     9    10 1
    27     9    52 1
    28     9    53 1
    29    10    11 1
    30    10    54 1
    31    10    55 1
    32    11    12 1
    33    11    56 1
    34    11    57 1
    35    12    13 1
    36    12    26 1
    37    12    58 1
    38    13    14 1
    39    13    59 1
    40    13    60 1
    41    14    15 1
    42    14    61 1
    43    14    62 1
    44    15    16 1
    45    15    63 1
    46    15    64 1
    47    16    17 1
    48    16    65 1
    49    16    66 1
    50    17    18 1
    51    17    67 1
    52    17    68 1
    53    18    19 1
    54    18    69 1
    55    18    70 1
    56    19    20 1
    57    19    71 1
    58    19    72 1
    59    20    21 1
    60    20    73 1
    61    20    74 1
    62    21    22 1
    63    21    75 1
    64    21    76 1
    65    22    23 1
    66    22    77 1
    67    22    78 1
    68    23    24 1
    69    23    79 1
    70    23    80 1
    71    24    25 1
    72    24    81 1
    73    24    82 1
    74    25    83 1
    75    25    84 1
    76    25    85 1
    77    26    27 1
    78    26    86 1
    79    26    87 1
    80    27    28 1
    81    27    88 1
    82    27    89 1
    83    28    29 1
    84    28    90 1
    85    28    91 1
    86    29    30 1
    87    29    92 1
    88    29    93 1
    89    30    31 1
    90    30    94 1
    91    30    95 1
    92    31    32 1
    93    31    96 1
    94    31    97 1
    95    32    33 1
    96    32    98 1
    97    32    99 1
    98    33    34 1
    99    33   100 1
   100    33   101 1
   101    34   102 1
   102    34   103 1
   103    34   104 1
@<TRIPOS>SUBSTRUCTURE
     1 UPL         1 TEMP              0 ****  ****    0 ROOT
