@<TRIPOS>MOLECULE
UPL
  104   103     1     0     0
SMALL
bcc


@<TRIPOS>ATOM
      1 C1         -0.3720   -0.6370    1.8960 c3        1 UPL     -0.092100
      2 C2          1.0320   -0.0990    1.7990 c3        1 UPL     -0.080400
      3 C3          1.9090   -0.6320    2.9120 c3        1 UPL     -0.079400
      4 C4          3.3180   -0.0890    2.8110 c3        1 UPL     -0.079400
      5 C5          4.1960   -0.6260    3.9220 c3        1 UPL     -0.078400
      6 C6          5.6010   -0.0730    3.8230 c3        1 UPL     -0.080400
      7 C7          6.4680   -0.5560    4.9670 c3        1 UPL     -0.078400
      8 C8          7.8700    0.0040    4.8600 c3        1 UPL     -0.080400
      9 C9          8.6950   -0.3240    6.0870 c3        1 UPL     -0.079400
     10 C10        10.0880    0.2580    5.9710 c3        1 UPL     -0.079400
     11 C11        10.8770    0.1600    7.2590 c3        1 UPL     -0.075400
     12 C12        10.4520    1.1650    8.3240 c3        1 UPL     -0.064700
     13 C13        10.9890    0.7410    9.6870 c3        1 UPL     -0.076400
     14 C14        10.1320   -0.3260   10.3350 c3        1 UPL     -0.079400
     15 C15        10.6940   -0.7350   11.6800 c3        1 UPL     -0.079400
     16 C16         9.8360   -1.7980   12.3340 c3        1 UPL     -0.079400
     17 C17        10.3960   -2.2050   13.6800 c3        1 UPL     -0.079400
     18 C18         9.5380   -3.2670   14.3330 c3        1 UPL     -0.079400
     19 C19        10.0970   -3.6740   15.6800 c3        1 UPL     -0.079400
     20 C20         9.2390   -4.7360   16.3330 c3        1 UPL     -0.079400
     21 C21         9.7970   -5.1410   17.6800 c3        1 UPL     -0.079400
     22 C22         8.9390   -6.2040   18.3330 c3        1 UPL     -0.079400
     23 C23         9.4960   -6.6090   19.6810 c3        1 UPL     -0.079400
     24 C24         8.6380   -7.6710   20.3350 c3        1 UPL     -0.080400
     25 C25         9.1890   -8.0770   21.6780 c3        1 UPL     -0.092100
     26 C26        10.9450    2.5620    7.9680 c3        1 UPL     -0.075400
     27 C27        10.2390    3.6840    8.7000 c3        1 UPL     -0.075400
     28 C28         8.7460    3.7700    8.4680 c3        1 UPL     -0.076400
     29 C29         8.3670    3.8210    7.0030 c3        1 UPL     -0.081400
     30 C30         6.9040    4.1710    6.8300 c3        1 UPL     -0.078400
     31 C31         6.4720    4.0450    5.3850 c3        1 UPL     -0.080400
     32 C32         5.0280    4.4630    5.2050 c3        1 UPL     -0.079400
     33 C33         4.5620    4.2400    3.7820 c3        1 UPL     -0.081400
     34 C34         3.1450    4.7130    3.5840 c3        1 UPL     -0.093100
     35 H11        -0.8400   -0.3460    2.8670 hc        1 UPL      0.032700
     36 H12        -0.3730   -1.7520    1.8270 hc        1 UPL      0.032700
     37 H13        -1.0010   -0.2320    1.0660 hc        1 UPL      0.032700
     38 H21         1.4760   -0.3800    0.8070 hc        1 UPL      0.038700
     39 H22         1.0100    1.0220    1.8450 hc        1 UPL      0.038700
     40 H31         1.4680   -0.3500    3.9050 hc        1 UPL      0.039700
     41 H32         1.9330   -1.7520    2.8670 hc        1 UPL      0.039700
     42 H41         3.2960    1.0320    2.8600 hc        1 UPL      0.039200
     43 H42         3.7580   -0.3670    1.8170 hc        1 UPL      0.039200
     44 H51         3.7530   -0.3520    4.9160 hc        1 UPL      0.039700
     45 H52         4.2270   -1.7460    3.8720 hc        1 UPL      0.039700
     46 H61         6.0590   -0.3820    2.8470 hc        1 UPL      0.039700
     47 H62         5.5640    1.0500    3.8310 hc        1 UPL      0.039700
     48 H71         6.0090   -0.2430    5.9420 hc        1 UPL      0.039700
     49 H72         6.5070   -1.6770    4.9660 hc        1 UPL      0.039700
     50 H81         7.8170    1.1190    4.7370 hc        1 UPL      0.039700
     51 H82         8.3710   -0.4060    3.9450 hc        1 UPL      0.039700
     52 H91         8.1830    0.0860    6.9970 hc        1 UPL      0.040700
     53 H92         8.7590   -1.4360    6.2160 hc        1 UPL      0.040700
     54 H101       10.6450   -0.2900    5.1640 hc        1 UPL      0.039200
     55 H102       10.0160    1.3300    5.6460 hc        1 UPL      0.039200
     56 H111       10.7690   -0.8790    7.6720 hc        1 UPL      0.039700
     57 H112       11.9660    0.3150    7.0320 hc        1 UPL      0.039700
     58 H121        9.3270    1.1830    8.3700 hc        1 UPL      0.054700
     59 H131       11.0300    1.6330   10.3670 hc        1 UPL      0.040200
     60 H132       12.0400    0.3650    9.5740 hc        1 UPL      0.040200
     61 H141       10.0690   -1.2250    9.6670 hc        1 UPL      0.039700
     62 H142        9.0870    0.0600   10.4670 hc        1 UPL      0.039700
     63 H151       11.7390   -1.1230   11.5500 hc        1 UPL      0.039700
     64 H152       10.7560    0.1620   12.3510 hc        1 UPL      0.039700
     65 H161        8.7910   -1.4110   12.4630 hc        1 UPL      0.039700
     66 H162        9.7750   -2.6960   11.6640 hc        1 UPL      0.039700
     67 H171       10.4570   -1.3070   14.3490 hc        1 UPL      0.039700
     68 H172       11.4410   -2.5930   13.5510 hc        1 UPL      0.039700
     69 H181        9.4780   -4.1660   13.6640 hc        1 UPL      0.039700
     70 H182        8.4930   -2.8800   14.4600 hc        1 UPL      0.039700
     71 H191       11.1420   -4.0610   15.5520 hc        1 UPL      0.039700
     72 H192       10.1570   -2.7750   16.3490 hc        1 UPL      0.039700
     73 H201        8.1930   -4.3490   16.4590 hc        1 UPL      0.039700
     74 H202        9.1800   -5.6350   15.6640 hc        1 UPL      0.039700
     75 H211       10.8420   -5.5280   17.5530 hc        1 UPL      0.039700
     76 H212        9.8560   -4.2420   18.3490 hc        1 UPL      0.039700
     77 H221        7.8930   -5.8170   18.4590 hc        1 UPL      0.039700
     78 H222        8.8800   -7.1030   17.6650 hc        1 UPL      0.039700
     79 H231       10.5410   -6.9960   19.5550 hc        1 UPL      0.039700
     80 H232        9.5550   -5.7100   20.3490 hc        1 UPL      0.039700
     81 H241        8.5800   -8.5690   19.6650 hc        1 UPL      0.038700
     82 H242        7.5930   -7.2830   20.4580 hc        1 UPL      0.038700
     83 H251       10.2220   -8.4890   21.5720 hc        1 UPL      0.032700
     84 H252        9.2320   -7.2000   22.3680 hc        1 UPL      0.032700
     85 H253        8.5430   -8.8600   22.1420 hc        1 UPL      0.032700
     86 H261       10.8270    2.7270    6.8640 hc        1 UPL      0.039700
     87 H262       12.0440    2.6250    8.1920 hc        1 UPL      0.039700
     88 H271       10.7100    4.6530    8.3800 hc        1 UPL      0.036700
     89 H272       10.4180    3.5810    9.8040 hc        1 UPL      0.036700
     90 H281        8.3640    4.6940    8.9800 hc        1 UPL      0.038200
     91 H282        8.2340    2.8970    8.9510 hc        1 UPL      0.038200
     92 H291        8.5710    2.8220    6.5300 hc        1 UPL      0.042200
     93 H292        9.0020    4.5780    6.4720 hc        1 UPL      0.042200
     94 H301        6.2770    3.4940    7.4680 hc        1 UPL      0.038700
     95 H302        6.7240    5.2200    7.1870 hc        1 UPL      0.038700
     96 H311        7.1310    4.6790    4.7370 hc        1 UPL      0.039700
     97 H312        6.5990    2.9810    5.0470 hc        1 UPL      0.039700
     98 H321        4.9150    5.5470    5.4720 hc        1 UPL      0.039700
     99 H322        4.3760    3.8800    5.9080 hc        1 UPL      0.039700
    100 H331        5.2440    4.7830    3.0750 hc        1 UPL      0.038700
    101 H332        4.6320    3.1470    3.5330 hc        1 UPL      0.038700
    102 H341        2.4490    4.1690    4.2670 hc        1 UPL      0.032367
    103 H342        2.8190    4.5330    2.5310 hc        1 UPL      0.032367
    104 H343        3.0610    5.8060    3.7970 hc        1 UPL      0.032367
@<TRIPOS>BOND
     1    1    2 1   
     2    1   35 1   
     3    1   36 1   
     4    1   37 1   
     5    2    3 1   
     6    2   38 1   
     7    2   39 1   
     8    3    4 1   
     9    3   40 1   
    10    3   41 1   
    11    4    5 1   
    12    4   42 1   
    13    4   43 1   
    14    5    6 1   
    15    5   44 1   
    16    5   45 1   
    17    6    7 1   
    18    6   46 1   
    19    6   47 1   
    20    7    8 1   
    21    7   48 1   
    22    7   49 1   
    23    8    9 1   
    24    8   50 1   
    25    8   51 1   
    26    9   10 1   
    27    9   52 1   
    28    9   53 1   
    29   10   11 1   
    30   10   54 1   
    31   10   55 1   
    32   11   12 1   
    33   11   56 1   
    34   11   57 1   
    35   12   13 1   
    36   12   26 1   
    37   12   58 1   
    38   13   14 1   
    39   13   59 1   
    40   13   60 1   
    41   14   15 1   
    42   14   61 1   
    43   14   62 1   
    44   15   16 1   
    45   15   63 1   
    46   15   64 1   
    47   16   17 1   
    48   16   65 1   
    49   16   66 1   
    50   17   18 1   
    51   17   67 1   
    52   17   68 1   
    53   18   19 1   
    54   18   69 1   
    55   18   70 1   
    56   19   20 1   
    57   19   71 1   
    58   19   72 1   
    59   20   21 1   
    60   20   73 1   
    61   20   74 1   
    62   21   22 1   
    63   21   75 1   
    64   21   76 1   
    65   22   23 1   
    66   22   77 1   
    67   22   78 1   
    68   23   24 1   
    69   23   79 1   
    70   23   80 1   
    71   24   25 1   
    72   24   81 1   
    73   24   82 1   
    74   25   83 1   
    75   25   84 1   
    76   25   85 1   
    77   26   27 1   
    78   26   86 1   
    79   26   87 1   
    80   27   28 1   
    81   27   88 1   
    82   27   89 1   
    83   28   29 1   
    84   28   90 1   
    85   28   91 1   
    86   29   30 1   
    87   29   92 1   
    88   29   93 1   
    89   30   31 1   
    90   30   94 1   
    91   30   95 1   
    92   31   32 1   
    93   31   96 1   
    94   31   97 1   
    95   32   33 1   
    96   32   98 1   
    97   32   99 1   
    98   33   34 1   
    99   33  100 1   
   100   33  101 1   
   101   34  102 1   
   102   34  103 1   
   103   34  104 1   
@<TRIPOS>SUBSTRUCTURE
     1 UPL         1 TEMP              0 ****  ****    0 ROOT
