@<TRIPOS>MOLECULE
molecule
   47    49     1     0     0
SMALL
bcc


@<TRIPOS>ATOM
      1 N1           0.0000     0.0000     0.0000 n          1 UPP      -0.354000
      2 C2           1.3450     0.0000     0.0000 c          1 UPP       0.799500
      3 N3           2.0370     0.0000     1.1540 ns         1 UPP      -0.562500
      4 C4           1.3880    -0.0110     2.3360 c          1 UPP       0.712700
      5 C5          -0.0280    -0.0160     2.3500 cc         1 UPP      -0.363200
      6 C6          -0.6970    -0.0110     1.1770 cd         1 UPP       0.065600
      7 O2           1.9440     0.0090    -1.0590 o          1 UPP      -0.601500
      8 O4           2.0130    -0.0170     3.3810 o          1 UPP      -0.656500
      9 C1B         -0.7250     0.0050    -1.2730 c3         1 UPP       0.296500
     10 C2B         -0.3680     1.2660    -2.0890 c3         1 UPP       0.076100
     11 O2'         -1.3700     2.2720    -1.9260 oh         1 UPP      -0.591800
     12 C3B         -0.3350     0.7680    -3.5520 c3         1 UPP       0.103100
     13 C4B         -0.6730    -0.7360    -3.4480 c3         1 UPP       0.130100
     14 O4'         -0.3030    -1.1030    -2.0990 os         1 UPP      -0.355600
     15 O3'         -1.3160     1.4490    -4.3360 oh         1 UPP      -0.587800
     16 C5B          0.1410    -1.5440    -4.4610 c3         1 UPP       0.169400
     17 O5'         -0.1370    -2.9350    -4.2940 os         1 UPP      -0.540200
     18 PA           0.7470    -3.7200    -5.3850 p5         1 UPP       1.252800
     19 O1A          0.3710    -3.2680    -6.7430 o          1 UPP      -0.779500
     20 O2A          2.3070    -3.4150    -5.1320 o          1 UPP      -0.779500
     21 O3A          0.4820    -5.3030    -5.2530 os         1 UPP      -0.641800
     22 PB           1.3930    -6.0220    -6.3690 p5         1 UPP       1.232800
     23 O1B          1.0070    -5.5350    -7.7110 o          1 UPP      -0.760000
     24 O2B          2.9420    -5.6780    -6.0980 o          1 UPP      -0.760000
     25 O3B          1.1760    -7.6150    -6.2930 os         1 UPP      -0.453500
     26 C1'          1.9660    -8.1660    -7.2510 ca         1 UPP       0.185100
     27 C2'          3.2690    -8.5320    -6.9510 ca         1 UPP      -0.125000
     28 C3'          4.0710    -9.0920    -7.9270 ca         1 UPP      -0.136500
     29 C4'          3.5750    -9.2860    -9.2030 ca         1 UPP      -0.182000
     30 C5'          2.2770    -8.9210    -9.5050 ca         1 UPP      -0.136500
     31 C6'          1.4690    -8.3680    -8.5300 ca         1 UPP      -0.125000
     32 HN3          3.0370     0.0020     1.1350 hn         1 UPP       0.360500
     33 H5          -0.5670    -0.0250     3.2900 ha         1 UPP       0.164000
     34 H6          -1.7800    -0.0130     1.1680 h4         1 UPP       0.160000
     35 H1'         -1.7940    -0.0400    -1.1040 h2         1 UPP       0.077700
     36 H2B          0.6050     1.6410    -1.7970 h1         1 UPP       0.065700
     37 HO2'        -0.9580     3.0940    -1.7170 ho         1 UPP       0.390000
     38 H3B          0.6540     0.9030    -3.9720 h1         1 UPP       0.072700
     39 H4B         -1.7340    -0.8920    -3.6000 h1         1 UPP       0.065700
     40 HO3'        -0.8870     1.9570    -5.0050 ho         1 UPP       0.397000
     41 H5'1        -0.1290    -1.2400    -5.4650 h1         1 UPP       0.069200
     42 H5'2         1.1970    -1.3650    -4.3010 h1         1 UPP       0.069200
     43 H2'          3.6590    -8.3800    -5.9510 ha         1 UPP       0.147000
     44 H3'          5.0890    -9.3780    -7.6930 ha         1 UPP       0.098000
     45 H4'          4.2060    -9.7220    -9.9680 ha         1 UPP       0.088000
     46 H5'          1.8890    -9.0760   -10.5040 ha         1 UPP       0.098000
     47 H6'          0.4520    -8.0820    -8.7670 ha         1 UPP       0.147000
@<TRIPOS>BOND
     1     1     2 1
     2     1     6 1
     3     1     9 1
     4     2     3 1
     5     2     7 2
     6     3     4 1
     7     3    32 1
     8     4     5 1
     9     4     8 2
    10     5     6 2
    11     5    33 1
    12     6    34 1
    13     9    10 1
    14     9    14 1
    15     9    35 1
    16    10    11 1
    17    10    12 1
    18    10    36 1
    19    11    37 1
    20    12    13 1
    21    12    15 1
    22    12    38 1
    23    13    14 1
    24    13    16 1
    25    13    39 1
    26    15    40 1
    27    16    17 1
    28    16    41 1
    29    16    42 1
    30    17    18 1
    31    18    19 1
    32    18    20 1
    33    18    21 1
    34    21    22 1
    35    22    23 1
    36    22    24 1
    37    22    25 1
    38    25    26 1
    39    26    27 ar
    40    26    31 ar
    41    27    28 ar
    42    27    43 1
    43    28    29 ar
    44    28    44 1
    45    29    30 ar
    46    29    45 1
    47    30    31 ar
    48    30    46 1
    49    31    47 1
@<TRIPOS>SUBSTRUCTURE
     1 UPP         1 TEMP              0 ****  ****    0 ROOT
