@<TRIPOS>MOLECULE
molecule
   44    45     1     0     0
SMALL
bcc


@<TRIPOS>ATOM
      1 PA           0.0000     0.0000     0.0000 p5         1 UPR       1.360700
      2 O1A          1.7200     0.0000     0.0000 oh         1 UPR      -0.698433
      3 O2A         -0.8600     0.0000     1.4900 oh         1 UPR      -0.698433
      4 O3A         -0.0010     1.7200     0.0000 oh         1 UPR      -0.698433
      5 N3A         -0.0000    -1.8100     0.0000 n7         1 UPR      -0.900400
      6 PB           0.7520    -2.4120     1.3800 p5         1 UPR       1.348700
      7 O1B          2.1640    -1.9720     1.4060 o          1 UPR      -0.829500
      8 O2B         -0.0070    -1.8600     2.6890 o          1 UPR      -0.829500
      9 O3B          0.6910    -4.0210     1.3650 os         1 UPR      -0.719800
     10 PG           1.2130    -5.1700     2.3650 p5         1 UPR       1.313900
     11 O2G          0.8720    -4.8030     3.7580 o          1 UPR      -0.878833
     12 O1G          0.5090    -6.5690     1.9910 o          1 UPR      -0.878833
     13 O3G          2.8100    -5.3190     2.2260 o          1 UPR      -0.878833
     14 C5'         -2.2740     0.1580    -1.3430 c3         1 UPR       0.190400
     15 O5'         -0.8610     0.0000    -1.4890 os         1 UPR      -0.545900
     16 C4'         -2.9240     0.2280    -2.7270 c3         1 UPR       0.143100
     17 O4'         -2.7930    -1.0350    -3.4150 os         1 UPR      -0.370600
     18 C3'         -4.4570     0.4140    -2.6010 c3         1 UPR       0.102100
     19 O3'         -4.7950     1.7980    -2.4820 oh         1 UPR      -0.600800
     20 C2'         -4.9660    -0.1650    -3.9440 c3         1 UPR      -0.163400
     21 C1'         -3.8160    -1.0710    -4.4230 c3         1 UPR       0.307500
     22 N1          -4.3000    -2.4440    -4.5930 n          1 UPR      -0.349000
     23 C2          -4.3080    -3.0020    -5.8170 c          1 UPR       0.818500
     24 O2          -3.9120    -2.3600    -6.7710 o          1 UPR      -0.711500
     25 N3          -4.7490    -4.2600    -6.0000 ns         1 UPR      -0.569500
     26 C4          -5.1910    -4.9860    -4.9530 c          1 UPR       0.690700
     27 O4          -5.5880    -6.1240    -5.1190 o          1 UPR      -0.680500
     28 C5          -5.1870    -4.4100    -3.6600 cc         1 UPR      -0.348200
     29 C6          -4.7350    -3.1480    -3.5030 cd         1 UPR      -0.023400
     30 H1A          2.0340     0.3540    -0.8160 ho         1 UPR       0.399333
     31 H2A         -0.7410     0.8300     1.9210 ho         1 UPR       0.399333
     32 H3A          0.7300     2.0340     0.5060 ho         1 UPR       0.399333
     33 H2           0.0650    -2.3110    -0.8640 hn         1 UPR       0.393800
     34 H5'1        -2.6770    -0.6850    -0.7970 h1         1 UPR       0.047200
     35 H5'2        -2.4800     1.0730    -0.8010 h1         1 UPR       0.047200
     36 H4'         -2.4930     1.0270    -3.3180 h1         1 UPR       0.064700
     37 H1          -4.8440    -0.1570    -1.7660 h1         1 UPR       0.059700
     38 H3'         -5.6080     1.8840    -2.0140 ho         1 UPR       0.394000
     39 H2'1        -5.8660    -0.7480    -3.7860 hc         1 UPR       0.058700
     40 H2'2        -5.1420     0.6320    -4.6560 hc         1 UPR       0.058700
     41 H1'         -3.4200    -0.6970    -5.3600 h2         1 UPR       0.094700
     42 HN3         -4.7480    -4.6600    -6.9180 hn         1 UPR       0.337500
     43 H5          -5.5360    -4.9780    -2.8060 ha         1 UPR       0.172000
     44 H6          -4.7250    -2.6920    -2.5200 h4         1 UPR       0.172000
@<TRIPOS>BOND
     1     1     2 1
     2     1     3 1
     3     1     4 1
     4     1     5 1
     5     1    15 1
     6     2    30 1
     7     3    31 1
     8     4    32 1
     9     5     6 1
    10     5    33 1
    11     6     7 1
    12     6     8 1
    13     6     9 1
    14     9    10 1
    15    10    11 1
    16    10    12 1
    17    10    13 1
    18    14    15 1
    19    14    16 1
    20    14    34 1
    21    14    35 1
    22    16    17 1
    23    16    18 1
    24    16    36 1
    25    17    21 1
    26    18    19 1
    27    18    20 1
    28    18    37 1
    29    19    38 1
    30    20    21 1
    31    20    39 1
    32    20    40 1
    33    21    22 1
    34    21    41 1
    35    22    23 1
    36    22    29 1
    37    23    24 2
    38    23    25 1
    39    25    26 1
    40    25    42 1
    41    26    27 2
    42    26    28 1
    43    28    29 2
    44    28    43 1
    45    29    44 1
@<TRIPOS>SUBSTRUCTURE
     1 UPR         1 TEMP              0 ****  ****    0 ROOT
