@<TRIPOS>MOLECULE
molecule
   31    33     1     0     0
SMALL
bcc


@<TRIPOS>ATOM
      1 S            0.0000     0.0000     0.0000 s          1 UPT      -0.513000
      2 P            1.8640     0.0000     0.0000 p5         1 UPT       1.094200
      3 O            2.4450     0.0000     1.5220 os         1 UPT      -0.427200
      4 O5           2.4350    -1.2540    -0.8330 oh         1 UPT      -0.686400
      5 O6           2.4460     1.4060    -0.5900 os         1 UPT      -0.409200
      6 C1           3.7280     1.5000     0.0780 c3         1 UPT       0.014100
      7 C2           3.5520     0.9060     1.4970 c3         1 UPT       0.048100
      8 C3           3.2230     2.1590     2.3420 c3         1 UPT       0.137100
      9 C4           3.5990     1.9330     3.8080 c3         1 UPT       0.153400
     10 O2           3.1790     3.0570     4.5850 oh         1 UPT      -0.591800
     11 O1           4.0520     3.1870     1.7570 os         1 UPT      -0.387600
     12 C            4.0180     2.9940     0.3330 c3         1 UPT       0.323500
     13 N            5.3140     3.3560    -0.2490 n          1 UPT      -0.371000
     14 C8           5.3640     4.2340    -1.2670 c          1 UPT       0.816500
     15 O4           4.3330     4.7180    -1.6940 o          1 UPT      -0.636500
     16 N1           6.5400     4.5840    -1.8200 ns         1 UPT      -0.557500
     17 C7           7.6920     4.0580    -1.3590 c          1 UPT       0.701700
     18 O3           8.7570     4.3740    -1.8580 o          1 UPT      -0.605500
     19 C5           7.6530     3.1320    -0.2870 cc         1 UPT      -0.307200
     20 C6           6.4600     2.8030     0.2520 cd         1 UPT       0.025600
     21 H2           4.5210     1.0140    -0.4770 h1         1 UPT       0.108700
     22 H3           4.4630     0.4290     1.8390 h1         1 UPT       0.108700
     23 H4           2.1750     2.4160     2.2460 h1         1 UPT       0.102700
     24 H5           4.6730     1.8180     3.8920 h1         1 UPT       0.039700
     25 H6           3.1100     1.0380     4.1730 h1         1 UPT       0.039700
     26 H7           3.3980     2.9120     5.4900 ho         1 UPT       0.414000
     27 H8           3.2320     3.6000    -0.1010 h2         1 UPT       0.151700
     28 H9           6.5590     5.2390    -2.5770 hn         1 UPT       0.370500
     29 H10          8.5680     2.6990     0.0990 ha         1 UPT       0.182000
     30 H11          6.4100     2.0970     1.0720 h4         1 UPT       0.161000
     31 H1           1.7170    -1.7870    -1.1320 ho         1 UPT       0.502000
@<TRIPOS>BOND
     1    18    17 2
     2    17    16 1
     3    17    19 1
     4    16    14 1
     5    19    20 2
     6    14    15 2
     7    14    13 1
     8     5     6 1
     9     5     2 1
    10    20    13 1
    11    13    12 1
    12     4     2 1
    13     6    12 1
    14     6     7 1
    15     2     1 2
    16     2     3 1
    17    12    11 1
    18     7     3 1
    19     7     8 1
    20    11     8 1
    21    10     9 1
    22     8     9 1
    23     6    21 1
    24     7    22 1
    25     8    23 1
    26     9    24 1
    27     9    25 1
    28    10    26 1
    29    12    27 1
    30    16    28 1
    31    19    29 1
    32    20    30 1
    33     4    31 1
@<TRIPOS>SUBSTRUCTURE
     1 UPT         1 TEMP              0 ****  ****    0 ROOT
