@<TRIPOS>MOLECULE
UPX
   47    50     1     0     0
SMALL
bcc


@<TRIPOS>ATOM
      1 OBB          0.0000     0.0000     0.0000 o          1 UPX      -0.433500
      2 NAB          1.3170     0.0000     0.0000 no         1 UPX       0.922200
      3 OBC          1.9760     0.0000     1.1400 o          1 UPX      -0.433500
      4 CAJ          2.0580    -0.0060    -1.2820 ca         1 UPX      -0.408200
      5 CAI          1.3700    -0.0120    -2.4750 ca         1 UPX       0.043000
      6 CAH          2.0540    -0.0180    -3.6860 ca         1 UPX      -0.174000
      7 CAM          3.4170    -0.0170    -3.7130 ca         1 UPX       0.050000
      8 CAL          4.1390    -0.0110    -2.5130 ca         1 UPX      -0.150800
      9 CAO          5.5210    -0.0090    -2.2100 cc         1 UPX      -0.048200
     10 CAK          3.4490     0.0000    -1.2840 ca         1 UPX      -0.163200
     11 NAA          4.3910     0.0110    -0.2840 na         1 UPX       0.394600
     12 CAN          5.6480    -0.0010    -0.8560 cd         1 UPX      -0.339300
     13 CAP          6.9200     0.0030    -0.1200 c          1 UPX       0.605300
     14 OBD          7.9750     0.0000    -0.7260 o          1 UPX      -0.616100
     15 NAC          6.9190     0.0090     1.2280 ns         1 UPX      -0.017100
     16 CAQ          8.1080    -0.0980     1.9210 ca         1 UPX      -0.108400
     17 CAV          8.2660     0.5720     3.1410 ca         1 UPX      -0.116000
     18 CAU          9.4350     0.4730     3.8280 ca         1 UPX      -0.077000
     19 CAR          9.1490    -0.8800     1.4020 ca         1 UPX      -0.116000
     20 CAS         10.3230    -0.9890     2.0780 ca         1 UPX      -0.077000
     21 CAT         10.4920    -0.3110     3.3080 ca         1 UPX      -0.105900
     22 CAW         11.7040    -0.4190     4.0130 ce         1 UPX       0.267900
     23 CAX         12.8270    -1.2540     3.4560 c3         1 UPX      -0.050400
     24 NAD         11.8570     0.2160     5.1730 n2         1 UPX      -0.428400
     25 NAE         12.9690     0.1170     5.8190 nu         1 UPX      -0.073000
     26 CAY         13.1250     0.7590     6.9910 cc         1 UPX       0.252400
     27 NAF         14.2510     0.7350     7.7730 na         1 UPX       0.262100
     28 CAZ         14.0010     1.5020     8.8570 cc         1 UPX      -0.484600
     29 CBA         12.7060     1.9910     8.7160 cd         1 UPX       0.346200
     30 NAG         12.2140     1.5280     7.5830 nd         1 UPX      -0.597000
     31 HAI          0.2870    -0.0130    -2.4710 ha         1 UPX       0.132000
     32 HAH          1.4980    -0.0230    -4.6150 ha         1 UPX       0.119000
     33 HAM          3.9410    -0.0220    -4.6620 ha         1 UPX       0.107000
     34 HAO          6.3320    -0.0190    -2.9270 ha         1 UPX       0.147000
     35 HAA          4.1980     0.0190     0.6980 hn         1 UPX       0.151700
     36 HAC          6.0700     0.1960     1.7240 hn         1 UPX       0.161500
     37 HAV          7.4560     1.1720     3.5370 ha         1 UPX       0.120000
     38 HAR          9.0170    -1.3990     0.4600 ha         1 UPX       0.120000
     39 HAU          9.5570     0.9930     4.7700 ha         1 UPX       0.123000
     40 HAS         11.1270    -1.5930     1.6760 ha         1 UPX       0.123000
     41 HAX1        13.7600    -0.7120     3.5470 hc         1 UPX       0.014033
     42 HAX2        12.8940    -2.1840     4.0090 hc         1 UPX       0.014033
     43 HAX3        12.6340    -1.4680     2.4120 hc         1 UPX       0.014033
     44 HAE         13.7110    -0.4480     5.4560 hn         1 UPX       0.255800
     45 HAF         15.0990     0.2410     7.5780 hn         1 UPX       0.115700
     46 HAZ         14.6800     1.6980     9.6780 h4         1 UPX       0.156000
     47 HBA         12.1930     2.6430     9.4140 h4         1 UPX       0.004100
@<TRIPOS>BOND
     1     1     2 1   
     2     2     3 1   
     3     2     4 1   
     4     4     5 ar  
     5     4    10 ar  
     6     5     6 ar  
     7     5    31 1   
     8     6     7 ar  
     9     6    32 1   
    10     7     8 ar  
    11     7    33 1   
    12     8     9 1   
    13     8    10 ar  
    14     9    12 2   
    15     9    34 1   
    16    10    11 1   
    17    11    12 1   
    18    11    35 1   
    19    12    13 1   
    20    13    14 2   
    21    13    15 1   
    22    15    16 1   
    23    15    36 1   
    24    16    17 ar  
    25    16    19 ar  
    26    17    18 ar  
    27    17    37 1   
    28    18    21 ar  
    29    18    39 1   
    30    19    20 ar  
    31    19    38 1   
    32    20    21 ar  
    33    20    40 1   
    34    21    22 1   
    35    22    23 1   
    36    22    24 2   
    37    23    41 1   
    38    23    42 1   
    39    23    43 1   
    40    24    25 1   
    41    25    26 1   
    42    25    44 1   
    43    26    27 1   
    44    26    30 2   
    45    27    28 1   
    46    27    45 1   
    47    28    29 2   
    48    28    46 1   
    49    29    30 1   
    50    29    47 1   
@<TRIPOS>SUBSTRUCTURE
     1 UPX         1 TEMP              0 ****  ****    0 ROOT
