@<TRIPOS>MOLECULE
molecule
   47    50     1     0     0
SMALL
bcc


@<TRIPOS>ATOM
      1 OBB          0.0000     0.0000     0.0000 o          1 UPX      -0.205000
      2 NAB          1.3170     0.0000     0.0000 no         1 UPX       0.213200
      3 OBC          1.9760     0.0000     1.1400 o          1 UPX      -0.205000
      4 CAJ          2.0580    -0.0060    -1.2820 ca         1 UPX      -0.139200
      5 CAI          1.3700    -0.0120    -2.4750 ca         1 UPX      -0.022000
      6 CAH          2.0540    -0.0180    -3.6860 ca         1 UPX      -0.179000
      7 CAM          3.4170    -0.0170    -3.7130 ca         1 UPX      -0.013000
      8 CAL          4.1390    -0.0110    -2.5130 ca         1 UPX      -0.131800
      9 CAO          5.5210    -0.0090    -2.2100 cc         1 UPX      -0.097200
     10 CAK          3.4490     0.0000    -1.2840 ca         1 UPX       0.010800
     11 NAA          4.3910     0.0110    -0.2840 na         1 UPX      -0.147400
     12 CAN          5.6480    -0.0010    -0.8560 cd         1 UPX      -0.131300
     13 CAP          6.9200     0.0030    -0.1200 c          1 UPX       0.692300
     14 OBD          7.9750     0.0000    -0.7260 o          1 UPX      -0.570100
     15 NAC          6.9190     0.0090     1.2280 ns         1 UPX      -0.464100
     16 CAQ          8.1080    -0.0980     1.9210 ca         1 UPX       0.050600
     17 CAV          8.2660     0.5720     3.1410 ca         1 UPX      -0.147500
     18 CAU          9.4350     0.4730     3.8280 ca         1 UPX      -0.090000
     19 CAR          9.1490    -0.8800     1.4020 ca         1 UPX      -0.147500
     20 CAS         10.3230    -0.9890     2.0780 ca         1 UPX      -0.090000
     21 CAT         10.4920    -0.3110     3.3080 ca         1 UPX      -0.117900
     22 CAW         11.7040    -0.4190     4.0130 ce         1 UPX       0.322900
     23 CAX         12.8270    -1.2540     3.4560 c3         1 UPX      -0.165400
     24 NAD         11.8570     0.2160     5.1730 n2         1 UPX      -0.355400
     25 NAE         12.9690     0.1170     5.8190 nu         1 UPX      -0.523000
     26 CAY         13.1250     0.7590     6.9910 cc         1 UPX       0.636400
     27 NAF         14.2510     0.7350     7.7730 na         1 UPX      -0.299900
     28 CAZ         14.0010     1.5020     8.8570 cc         1 UPX      -0.310600
     29 CBA         12.7060     1.9910     8.7160 cd         1 UPX       0.331200
     30 NAG         12.2140     1.5280     7.5830 nd         1 UPX      -0.682000
     31 HAI          0.2870    -0.0130    -2.4710 ha         1 UPX       0.171000
     32 HAH          1.4980    -0.0230    -4.6150 ha         1 UPX       0.151000
     33 HAM          3.9410    -0.0220    -4.6620 ha         1 UPX       0.147000
     34 HAO          6.3320    -0.0190    -2.9270 ha         1 UPX       0.180000
     35 HAA          4.1980     0.0190     0.6980 hn         1 UPX       0.329700
     36 HAC          6.0700     0.1960     1.7240 hn         1 UPX       0.322500
     37 HAV          7.4560     1.1720     3.5370 ha         1 UPX       0.144500
     38 HAR          9.0170    -1.3990     0.4600 ha         1 UPX       0.144500
     39 HAU          9.5570     0.9930     4.7700 ha         1 UPX       0.150500
     40 HAS         11.1270    -1.5930     1.6760 ha         1 UPX       0.150500
     41 HAX1        12.8940    -2.1840     4.0090 hc         1 UPX       0.047367
     42 HAX2        12.6340    -1.4680     2.4120 hc         1 UPX       0.047367
     43 HAX3        13.7600    -0.7120     3.5470 hc         1 UPX       0.047367
     44 HAE         13.7110    -0.4480     5.4560 hn         1 UPX       0.423800
     45 HAF         15.0990     0.2410     7.5780 hn         1 UPX       0.295700
     46 HAZ         14.6800     1.6980     9.6780 h4         1 UPX       0.178000
     47 HBA         12.1930     2.6430     9.4140 h4         1 UPX       0.045100
@<TRIPOS>BOND
     1     1     2 1
     2     2     3 1
     3     2     4 1
     4     4     5 ar
     5     4    10 ar
     6     5     6 ar
     7     6     7 ar
     8     7     8 ar
     9     8     9 1
    10     8    10 ar
    11     9    12 2
    12    10    11 1
    13    11    12 1
    14    12    13 1
    15    13    14 2
    16    13    15 1
    17    15    16 1
    18    16    17 ar
    19    16    19 ar
    20    17    18 ar
    21    18    21 ar
    22    19    20 ar
    23    20    21 ar
    24    21    22 1
    25    22    23 1
    26    22    24 2
    27    24    25 1
    28    25    26 1
    29    26    27 1
    30    26    30 2
    31    27    28 1
    32    28    29 2
    33    29    30 1
    34     5    31 1
    35     6    32 1
    36     7    33 1
    37     9    34 1
    38    11    35 1
    39    15    36 1
    40    17    37 1
    41    19    38 1
    42    18    39 1
    43    20    40 1
    44    23    41 1
    45    23    42 1
    46    23    43 1
    47    25    44 1
    48    27    45 1
    49    28    46 1
    50    29    47 1
@<TRIPOS>SUBSTRUCTURE
     1 UPX         1 TEMP              0 ****  ****    0 ROOT
