@<TRIPOS>MOLECULE
molecule
   36    36     1     0     0
SMALL
bcc


@<TRIPOS>ATOM
      1 C1           0.0000     0.0000     0.0000 c          1 UQ1       0.546500
      2 O1          -0.6070    -0.0010    -1.0530 o          1 UQ1      -0.488100
      3 C2           1.4750     0.0000     0.0000 cc         1 UQ1       0.002900
      4 O2           2.1560    -0.0010    -1.1750 os         1 UQ1      -0.287900
      5 CM2          1.8970    -1.2580    -1.8010 c3         1 UQ1       0.113700
      6 C3           2.1490     0.0000     1.1720 cd         1 UQ1       0.001900
      7 O3           3.5060     0.0010     1.1780 os         1 UQ1      -0.288900
      8 CM3          3.9170     1.2580     1.7170 c3         1 UQ1       0.112700
      9 C4           1.4060    -0.0060     2.4470 c          1 UQ1       0.545500
     10 O4           2.0080    -0.0060     3.5020 o          1 UQ1      -0.488100
     11 C5          -0.0740    -0.0000     2.4400 cc         1 UQ1      -0.143400
     12 CM5         -0.8300    -0.0010     3.7430 c3         1 UQ1      -0.051900
     13 C6          -0.7390    -0.0000     1.2800 cd         1 UQ1      -0.137400
     14 C7          -2.2460    -0.0010     1.2780 c3         1 UQ1      -0.003000
     15 C8          -2.7480     1.4190     1.2770 c2         1 UQ1      -0.197200
     16 C9          -3.6150     1.8070     0.3760 c2         1 UQ1      -0.104400
     17 C10         -3.9910     3.2630     0.2680 c3         1 UQ1      -0.057400
     18 C11         -4.2340     0.8000    -0.5580 c3         1 UQ1      -0.057400
     19 HM21         1.5970    -1.9800    -1.0520 h1         1 UQ1       0.045700
     20 HM22         2.7950    -1.6050    -2.2980 h1         1 UQ1       0.045700
     21 HM23         1.1040    -1.1420    -2.5300 h1         1 UQ1       0.045700
     22 HM31         4.1180     1.1480     2.7760 h1         1 UQ1       0.046033
     23 HM32         4.8150     1.5920     1.2120 h1         1 UQ1       0.046033
     24 HM33         3.1290     1.9880     1.5730 h1         1 UQ1       0.046033
     25 HM51        -0.1310    -0.0770     4.5670 hc         1 UQ1       0.059033
     26 HM52        -1.5090    -0.8450     3.7660 hc         1 UQ1       0.059033
     27 HM53        -1.3950     0.9190     3.8320 hc         1 UQ1       0.059033
     28 H71         -2.6060    -0.5120     0.3930 hc         1 UQ1       0.067700
     29 H72         -2.6080    -0.5110     2.1620 hc         1 UQ1       0.067700
     30 H8          -2.3030     2.1470     1.9450 ha         1 UQ1       0.126000
     31 H101        -3.1690     3.8750     0.6200 hc         1 UQ1       0.044700
     32 H102        -4.8690     3.4550     0.8720 hc         1 UQ1       0.044700
     33 H103        -4.2040     3.5050    -0.7660 hc         1 UQ1       0.044700
     34 H111        -3.5040     0.4980    -1.2990 hc         1 UQ1       0.044700
     35 H112        -4.5550    -0.0660     0.0070 hc         1 UQ1       0.044700
     36 H113        -5.0890     1.2450    -1.0530 hc         1 UQ1       0.044700
@<TRIPOS>BOND
     1     1     2 2
     2     1     3 1
     3     1    13 1
     4     3     4 1
     5     3     6 2
     6     4     5 1
     7     5    19 1
     8     5    20 1
     9     5    21 1
    10     6     7 1
    11     6     9 1
    12     7     8 1
    13     8    22 1
    14     8    23 1
    15     8    24 1
    16     9    10 2
    17     9    11 1
    18    11    12 1
    19    11    13 2
    20    12    25 1
    21    12    26 1
    22    12    27 1
    23    13    14 1
    24    14    15 1
    25    14    28 1
    26    14    29 1
    27    15    16 2
    28    15    30 1
    29    16    17 1
    30    16    18 1
    31    17    31 1
    32    17    32 1
    33    17    33 1
    34    18    34 1
    35    18    35 1
    36    18    36 1
@<TRIPOS>SUBSTRUCTURE
     1 UQ1         1 TEMP              0 ****  ****    0 ROOT
