@<TRIPOS>MOLECULE
UQ1
   36    36     1     0     0
SMALL
bcc


@<TRIPOS>ATOM
      1 C1          0.2110   -0.3470   -0.0870 c         1 UQ1      0.555500
      2 O1         -0.2730   -0.6960   -1.1700 o         1 UQ1     -0.503100
      3 C2          1.6770   -0.2280    0.1160 cc        1 UQ1      0.025900
      4 O2          2.5400   -0.1810   -0.9520 os        1 UQ1     -0.305900
      5 CM2         2.2380   -1.0270   -2.0640 c3        1 UQ1      0.115700
      6 C3          2.2070   -0.1120    1.3660 cd        1 UQ1     -0.018100
      7 O3          3.5710   -0.2290    1.5390 os        1 UQ1     -0.307900
      8 CM3         4.2090    0.9440    2.0500 c3        1 UQ1      0.109700
      9 C4          1.3550    0.0400    2.5650 c         1 UQ1      0.552500
     10 O4          1.8330    0.0990    3.7040 o         1 UQ1     -0.496100
     11 C5         -0.1090    0.1290    2.3230 cc        1 UQ1     -0.120400
     12 CM5        -0.9550    0.3970    3.5100 c3        1 UQ1     -0.072900
     13 C6         -0.6360   -0.0340    1.0900 cd        1 UQ1     -0.140400
     14 C7         -2.1030    0.0580    0.8350 c3        1 UQ1     -0.014000
     15 C8         -2.5910    1.4600    0.8010 c2        1 UQ1     -0.184200
     16 C9         -3.8390    1.7890    0.4310 c2        1 UQ1     -0.108400
     17 C10        -4.2980    3.1990    0.4070 c3        1 UQ1     -0.062400
     18 C11        -4.8360    0.7740    0.0150 c3        1 UQ1     -0.062400
     19 HM21        3.2180   -1.1010   -2.6000 h1        1 UQ1      0.053700
     20 HM22        1.4660   -0.5370   -2.7060 h1        1 UQ1      0.053700
     21 HM23        1.8870   -2.0310   -1.7290 h1        1 UQ1      0.053700
     22 HM31        5.2830    0.6390    2.1250 h1        1 UQ1      0.048700
     23 HM32        4.0870    1.7910    1.3330 h1        1 UQ1      0.048700
     24 HM33        3.7990    1.2100    3.0540 h1        1 UQ1      0.048700
     25 HM51       -1.5460   -0.5200    3.7680 hc        1 UQ1      0.063700
     26 HM52       -0.3330    0.6750    4.3970 hc        1 UQ1      0.063700
     27 HM53       -1.6760    1.2270    3.2960 hc        1 UQ1      0.063700
     28 H71        -2.3500   -0.4470   -0.1420 hc        1 UQ1      0.072200
     29 H72        -2.6540   -0.5050    1.6430 hc        1 UQ1      0.072200
     30 H8         -1.8680    2.2370    1.0970 ha        1 UQ1      0.127000
     31 H101       -3.4840    3.9050    0.7010 hc        1 UQ1      0.043867
     32 H102       -5.1560    3.3340    1.1130 hc        1 UQ1      0.043867
     33 H103       -4.6470    3.4690   -0.6210 hc        1 UQ1      0.043867
     34 H111       -5.8480    1.2280   -0.1180 hc        1 UQ1      0.043867
     35 H112       -4.9110   -0.0390    0.7810 hc        1 UQ1      0.043867
     36 H113       -4.5270    0.3060   -0.9550 hc        1 UQ1      0.043867
@<TRIPOS>BOND
     1    1    2 2   
     2    1    3 1   
     3    1   13 1   
     4    3    4 1   
     5    3    6 2   
     6    4    5 1   
     7    5   19 1   
     8    5   20 1   
     9    5   21 1   
    10    6    7 1   
    11    6    9 1   
    12    7    8 1   
    13    8   22 1   
    14    8   23 1   
    15    8   24 1   
    16    9   10 2   
    17    9   11 1   
    18   11   12 1   
    19   11   13 2   
    20   12   25 1   
    21   12   26 1   
    22   12   27 1   
    23   13   14 1   
    24   14   15 1   
    25   14   28 1   
    26   14   29 1   
    27   15   16 2   
    28   15   30 1   
    29   16   17 1   
    30   16   18 1   
    31   17   31 1   
    32   17   32 1   
    33   17   33 1   
    34   18   34 1   
    35   18   35 1   
    36   18   36 1   
@<TRIPOS>SUBSTRUCTURE
     1 UQ1         1 TEMP              0 ****  ****    0 ROOT
