@<TRIPOS>MOLECULE
molecule
   49    49     1     0     0
SMALL
bcc


@<TRIPOS>ATOM
      1 C1           0.0000     0.0000     0.0000 c          1 UQ2       0.553500
      2 C2           1.4750     0.0000     0.0000 cc         1 UQ2       0.000900
      3 C3           2.1490     0.0000     1.1720 cd         1 UQ2       0.004900
      4 C4           1.4050    -0.0080     2.4470 c          1 UQ2       0.546500
      5 C5          -0.0730    -0.0020     2.4410 cc         1 UQ2      -0.134400
      6 C6          -0.7400    -0.0010     1.2800 cd         1 UQ2      -0.102400
      7 CM2          1.9000    -1.2580    -1.8000 c3         1 UQ2       0.113700
      8 CM3          3.9170     1.2610     1.7130 c3         1 UQ2       0.112700
      9 CM5         -0.8300    -0.0030     3.7430 c3         1 UQ2      -0.054900
     10 C7          -2.2470    -0.0020     1.2780 c3         1 UQ2      -0.043000
     11 C8          -2.7490     1.4180     1.2800 c2         1 UQ2      -0.497200
     12 C9          -3.6130     1.8080     0.3770 c2         1 UQ2       0.069600
     13 C10         -4.2330     0.8000    -0.5570 c3         1 UQ2      -0.135900
     14 C11         -3.9870     3.2630     0.2680 c3         1 UQ2      -0.044200
     15 C12         -3.0390     3.9640    -0.7050 c3         1 UQ2      -0.035200
     16 C13         -3.4140     5.4190    -0.8120 c2         1 UQ2      -0.190200
     17 C14         -2.5060     6.3440    -0.6210 c2         1 UQ2      -0.121400
     18 C15         -2.9110     7.7950    -0.5600 c3         1 UQ2      -0.053900
     19 C16         -1.0580     5.9580    -0.4630 c3         1 UQ2      -0.053900
     20 O1          -0.6080    -0.0000    -1.0510 o          1 UQ2      -0.498100
     21 O2           2.1550     0.0020    -1.1750 os         1 UQ2      -0.287900
     22 O3           3.5060     0.0010     1.1760 os         1 UQ2      -0.290900
     23 O4           2.0080    -0.0090     3.5020 o          1 UQ2      -0.489100
     24 H2M1         1.6110    -1.9820    -1.0480 h1         1 UQ2       0.045033
     25 H2M2         2.7970    -1.5980    -2.3040 h1         1 UQ2       0.045033
     26 H2M3         1.1000    -1.1480    -2.5220 h1         1 UQ2       0.045033
     27 H3M1         4.1190     1.1540     2.7720 h1         1 UQ2       0.046367
     28 H3M2         3.1290     1.9890     1.5670 h1         1 UQ2       0.046367
     29 H3M3         4.8140     1.5930     1.2060 h1         1 UQ2       0.046367
     30 H5M1        -1.4340     0.8940     3.8110 hc         1 UQ2       0.060367
     31 H5M2        -1.4720    -0.8750     3.7870 hc         1 UQ2       0.060367
     32 H5M3        -0.1290    -0.0300     4.5690 hc         1 UQ2       0.060367
     33 H71         -2.6080    -0.5140     2.1620 hc         1 UQ2       0.046700
     34 H72         -2.6070    -0.5110     0.3930 hc         1 UQ2       0.046700
     35 H8          -3.3120     0.6260     1.7590 ha         1 UQ2       0.304000
     36 H101        -5.0910     1.2420    -1.0480 hc         1 UQ2       0.056700
     37 H102        -3.5040     0.5020    -1.3020 hc         1 UQ2       0.056700
     38 H103        -4.5480    -0.0700     0.0070 hc         1 UQ2       0.056700
     39 H111        -5.0040     3.3480    -0.0950 hc         1 UQ2       0.057700
     40 H112        -3.9120     3.7280     1.2440 hc         1 UQ2       0.057700
     41 H121        -3.1140     3.4990    -1.6800 hc         1 UQ2       0.057700
     42 H122        -2.0220     3.8790    -0.3420 hc         1 UQ2       0.057700
     43 H13         -4.4540     5.7000    -0.9260 ha         1 UQ2       0.122000
     44 H151        -3.9390     7.8700    -0.2280 hc         1 UQ2       0.042200
     45 H152        -2.2680     8.3210     0.1360 hc         1 UQ2       0.042200
     46 H153        -2.8150     8.2380    -1.5440 hc         1 UQ2       0.042200
     47 H161        -0.7820     5.2610    -1.2450 hc         1 UQ2       0.042200
     48 H162        -0.4380     6.8440    -0.5350 hc         1 UQ2       0.042200
     49 H163        -0.9110     5.4930     0.5040 hc         1 UQ2       0.042200
@<TRIPOS>BOND
     1     1     2 1
     2     1     6 1
     3     1    20 2
     4     2     3 2
     5     2    21 1
     6     3     4 1
     7     3    22 1
     8     4     5 1
     9     4    23 2
    10     5     6 2
    11     5     9 1
    12     6    10 1
    13     7    21 1
    14     7    24 1
    15     7    25 1
    16     7    26 1
    17     8    22 1
    18     8    27 1
    19     8    28 1
    20     8    29 1
    21     9    30 1
    22     9    31 1
    23     9    32 1
    24    10    11 1
    25    10    33 1
    26    10    34 1
    27    11    12 2
    28    11    35 1
    29    12    13 1
    30    12    14 1
    31    13    36 1
    32    13    37 1
    33    13    38 1
    34    14    15 1
    35    14    39 1
    36    14    40 1
    37    15    16 1
    38    15    41 1
    39    15    42 1
    40    16    17 2
    41    16    43 1
    42    17    18 1
    43    17    19 1
    44    18    44 1
    45    18    45 1
    46    18    46 1
    47    19    47 1
    48    19    48 1
    49    19    49 1
@<TRIPOS>SUBSTRUCTURE
     1 UQ2         1 TEMP              0 ****  ****    0 ROOT
