@<TRIPOS>MOLECULE
UQ2
   49    49     1     0     0
SMALL
bcc


@<TRIPOS>ATOM
      1 C1         -0.0450   -0.4220    0.2130 c         1 UQ2      0.557500
      2 C2          1.4310   -0.2810    0.2690 cc        1 UQ2      0.023900
      3 C3          2.0940   -0.3000    1.4590 cd        1 UQ2     -0.015100
      4 C4          1.3770   -0.3270    2.7530 c         1 UQ2      0.552500
      5 C5         -0.1070   -0.2510    2.6840 cc        1 UQ2     -0.123400
      6 C6         -0.7630   -0.2800    1.5040 cd        1 UQ2     -0.133400
      7 CM2         1.7750   -0.8130   -2.0330 c3        1 UQ2      0.115700
      8 CM3         4.1380    0.7270    2.0620 c3        1 UQ2      0.109700
      9 CM5        -0.8140   -0.1510    3.9830 c3        1 UQ2     -0.070900
     10 C7         -2.2520   -0.1950    1.4090 c3        1 UQ2     -0.012000
     11 C8         -2.7160    1.2150    1.3590 c2        1 UQ2     -0.191200
     12 C9         -3.3440    1.7830    0.3190 c2        1 UQ2     -0.089400
     13 C10        -3.6350    1.0680   -0.9480 c3        1 UQ2     -0.072900
     14 C11        -3.8120    3.1990    0.3930 c3        1 UQ2     -0.045200
     15 C12        -2.9100    4.1270   -0.4010 c3        1 UQ2     -0.042200
     16 C13        -3.3840    5.5300   -0.3590 c2        1 UQ2     -0.180200
     17 C14        -2.6870    6.5610   -0.8620 c2        1 UQ2     -0.120400
     18 C15        -3.1970    7.9510   -0.8070 c3        1 UQ2     -0.058900
     19 C16        -1.3610    6.3800   -1.5020 c3        1 UQ2     -0.058900
     20 O1         -0.6390   -0.6520   -0.8470 o         1 UQ2     -0.508100
     21 O2          2.1670   -0.0740   -0.8730 os        1 UQ2     -0.305900
     22 O3          3.4710   -0.3910    1.4680 os        1 UQ2     -0.307900
     23 O4          1.9780   -0.4020    3.8300 o         1 UQ2     -0.496100
     24 H2M1        1.4960   -1.8610   -1.7730 h1        1 UQ2      0.053033
     25 H2M2        2.6920   -0.7880   -2.6730 h1        1 UQ2      0.053033
     26 H2M3        0.9210   -0.2940   -2.5330 h1        1 UQ2      0.053033
     27 H3M1        3.8380    0.8410    3.1310 h1        1 UQ2      0.049033
     28 H3M2        5.2190    0.4520    1.9770 h1        1 UQ2      0.049033
     29 H3M3        3.9180    1.6570    1.4850 h1        1 UQ2      0.049033
     30 H5M1       -1.4000   -1.0870    4.1710 hc        1 UQ2      0.062367
     31 H5M2       -0.0920   -0.0140    4.8270 hc        1 UQ2      0.062367
     32 H5M3       -1.5260    0.7120    3.9760 hc        1 UQ2      0.062367
     33 H71        -2.7140   -0.6960    2.3060 hc        1 UQ2      0.068700
     34 H72        -2.5960   -0.7630    0.5000 hc        1 UQ2      0.068700
     35 H8         -2.5180    1.7970    2.2750 ha        1 UQ2      0.121000
     36 H101       -4.4500    0.3170   -0.7870 hc        1 UQ2      0.050367
     37 H102       -2.7270    0.5250   -1.3160 hc        1 UQ2      0.050367
     38 H103       -3.9680    1.7770   -1.7450 hc        1 UQ2      0.050367
     39 H111       -4.8590    3.2600   -0.0100 hc        1 UQ2      0.047700
     40 H112       -3.8470    3.5440    1.4610 hc        1 UQ2      0.047700
     41 H121       -2.8610    3.7810   -1.4700 hc        1 UQ2      0.051200
     42 H122       -1.8620    4.0690    0.0050 hc        1 UQ2      0.051200
     43 H13        -4.3660    5.6960    0.1140 ha        1 UQ2      0.122000
     44 H151       -3.3260    8.3530   -1.8430 hc        1 UQ2      0.041200
     45 H152       -2.4670    8.6060   -0.2680 hc        1 UQ2      0.041200
     46 H153       -4.1810    8.0110   -0.2800 hc        1 UQ2      0.041200
     47 H161       -1.4090    5.5800   -2.2840 hc        1 UQ2      0.041200
     48 H162       -1.0100    7.3250   -1.9830 hc        1 UQ2      0.041200
     49 H163       -0.6040    6.0690   -0.7380 hc        1 UQ2      0.041200
@<TRIPOS>BOND
     1    1    2 1   
     2    1    6 1   
     3    1   20 2   
     4    2    3 2   
     5    2   21 1   
     6    3    4 1   
     7    3   22 1   
     8    4    5 1   
     9    4   23 2   
    10    5    6 2   
    11    5    9 1   
    12    6   10 1   
    13    7   21 1   
    14    7   24 1   
    15    7   25 1   
    16    7   26 1   
    17    8   22 1   
    18    8   27 1   
    19    8   28 1   
    20    8   29 1   
    21    9   30 1   
    22    9   31 1   
    23    9   32 1   
    24   10   11 1   
    25   10   33 1   
    26   10   34 1   
    27   11   12 2   
    28   11   35 1   
    29   12   13 1   
    30   12   14 1   
    31   13   36 1   
    32   13   37 1   
    33   13   38 1   
    34   14   15 1   
    35   14   39 1   
    36   14   40 1   
    37   15   16 1   
    38   15   41 1   
    39   15   42 1   
    40   16   17 2   
    41   16   43 1   
    42   17   18 1   
    43   17   19 1   
    44   18   44 1   
    45   18   45 1   
    46   18   46 1   
    47   19   47 1   
    48   19   48 1   
    49   19   49 1   
@<TRIPOS>SUBSTRUCTURE
     1 UQ2         1 TEMP              0 ****  ****    0 ROOT
