@<TRIPOS>MOLECULE
molecule
   88    88     1     0     0
SMALL
bcc


@<TRIPOS>ATOM
      1 C1           0.0000     0.0000     0.0000 cc         1 UQ5      -0.135400
      2 C2           1.4780     0.0000     0.0000 c          1 UQ5       0.546500
      3 C3           2.2160     0.0000     1.2780 cc         1 UQ5       0.006900
      4 C4           1.5370     0.0120     2.4480 cd         1 UQ5      -0.000100
      5 C5           0.0620     0.0180     2.4420 c          1 UQ5       0.555500
      6 C6          -0.6720     0.0120     1.1580 cd         1 UQ5      -0.102400
      7 C1M         -0.7530    -0.0060    -1.3060 c3         1 UQ5      -0.054900
      8 C3M          3.9820    -1.2740     0.7620 c3         1 UQ5       0.112700
      9 C4M          1.9670     1.2860     4.2360 c3         1 UQ5       0.113700
     10 C7          -2.1790     0.0180     1.1530 c3         1 UQ5      -0.043000
     11 C8          -2.6880    -1.3940     1.2860 c2         1 UQ5      -0.497200
     12 C9          -3.5550    -1.6940     2.2190 c2         1 UQ5       0.059600
     13 C10         -4.1670    -0.6000     3.0580 c3         1 UQ5      -0.137900
     14 C11         -3.9440    -3.1300     2.4560 c3         1 UQ5      -0.010200
     15 C12         -3.0840    -3.7130     3.5800 c3         1 UQ5      -0.072200
     16 C13         -3.4730    -5.1500     3.8170 c2         1 UQ5      -0.521200
     17 C14         -2.5550    -6.0860     3.8060 c2         1 UQ5       0.047600
     18 C15         -1.0980    -5.7130     3.7180 c3         1 UQ5      -0.129900
     19 C16         -2.9590    -7.5350     3.8830 c3         1 UQ5      -0.070200
     20 C17         -3.0470    -8.1160     2.4700 c3         1 UQ5      -0.084200
     21 C18         -3.4500    -9.5660     2.5470 c2         1 UQ5      -0.531200
     22 C19         -4.4770    -9.9980     1.8570 c2         1 UQ5       0.033600
     23 C20         -5.2880    -9.0340     1.0300 c3         1 UQ5      -0.130900
     24 C21         -4.8450   -11.4590     1.8880 c3         1 UQ5      -0.075200
     25 C22         -5.9250   -11.6900     2.9470 c3         1 UQ5      -0.087200
     26 C23         -6.2930   -13.1510     2.9790 c2         1 UQ5      -0.527200
     27 C24         -6.0870   -13.8540     4.0640 c2         1 UQ5       0.032600
     28 C25         -5.3300   -13.2530     5.2210 c3         1 UQ5      -0.129900
     29 C26         -6.6060   -15.2660     4.1570 c3         1 UQ5      -0.061200
     30 C27         -5.5000   -16.2430     3.7520 c3         1 UQ5      -0.086200
     31 C28         -6.0190   -17.6550     3.8440 c2         1 UQ5      -0.550200
     32 C29         -5.9040   -18.4640     2.8190 c2         1 UQ5       0.009600
     33 C30         -5.1060   -18.0420     1.6120 c3         1 UQ5      -0.096400
     34 C31         -6.5730   -19.8150     2.8460 c3         1 UQ5      -0.096400
     35 O2           2.0860    -0.0100    -1.0520 o          1 UQ5      -0.486100
     36 O3           3.5750    -0.0060     1.2800 os         1 UQ5      -0.289900
     37 O4           2.2120     0.0180     3.6260 os         1 UQ5      -0.288900
     38 O5          -0.5500     0.0290     3.4920 o          1 UQ5      -0.501100
     39 H1M1        -1.3790     0.8760    -1.3660 hc         1 UQ5       0.060367
     40 H1M2        -1.3730    -0.8930    -1.3610 hc         1 UQ5       0.060367
     41 H1M3        -0.0490    -0.0060    -2.1290 hc         1 UQ5       0.060367
     42 H3M1         4.1980    -1.1800    -0.2950 h1         1 UQ5       0.046700
     43 H3M2         3.1870    -1.9950     0.9060 h1         1 UQ5       0.046700
     44 H3M3         4.8720    -1.6080     1.2830 h1         1 UQ5       0.046700
     45 H4M1         1.6940     2.0060     3.4750 h1         1 UQ5       0.045367
     46 H4M2         2.8620     1.6200     4.7470 h1         1 UQ5       0.045367
     47 H4M3         1.1570     1.1920     4.9510 h1         1 UQ5       0.045367
     48 H71         -2.5400     0.6110     1.9850 hc         1 UQ5       0.048200
     49 H72         -2.5350     0.4440     0.2240 hc         1 UQ5       0.048200
     50 H8          -3.2470    -0.6460     0.7380 ha         1 UQ5       0.309000
     51 H101        -4.5790     0.1640     2.4100 hc         1 UQ5       0.057033
     52 H102        -4.9550    -1.0150     3.6740 hc         1 UQ5       0.057033
     53 H103        -3.4050    -0.1630     3.6930 hc         1 UQ5       0.057033
     54 H111        -4.9890    -3.1800     2.7380 hc         1 UQ5       0.070200
     55 H112        -3.7870    -3.7010     1.5490 hc         1 UQ5       0.070200
     56 H121        -3.2410    -3.1420     4.4870 hc         1 UQ5       0.041200
     57 H122        -2.0390    -3.6630     3.2980 hc         1 UQ5       0.041200
     58 H13         -3.1050    -4.5280     4.6240 ha         1 UQ5       0.325000
     59 H151        -0.4900    -6.5970     3.8670 hc         1 UQ5       0.056700
     60 H152        -0.8660    -4.9820     4.4830 hc         1 UQ5       0.056700
     61 H153        -0.8910    -5.2930     2.7410 hc         1 UQ5       0.056700
     62 H161        -3.9240    -7.6160     4.3670 hc         1 UQ5       0.068200
     63 H162        -2.2210    -8.0860     4.4540 hc         1 UQ5       0.068200
     64 H171        -2.0810    -8.0350     1.9860 hc         1 UQ5       0.068200
     65 H172        -3.7850    -7.5660     1.8990 hc         1 UQ5       0.068200
     66 H18         -3.9470    -8.7810     3.1040 ha         1 UQ5       0.352000
     67 H201        -5.7540    -8.3040     1.6810 hc         1 UQ5       0.055033
     68 H202        -6.0550    -9.5780     0.4910 hc         1 UQ5       0.055033
     69 H203        -4.6400    -8.5280     0.3250 hc         1 UQ5       0.055033
     70 H211        -3.9680   -12.0470     2.1310 hc         1 UQ5       0.071200
     71 H212        -5.2220   -11.7570     0.9170 hc         1 UQ5       0.071200
     72 H221        -6.8020   -11.1020     2.7030 hc         1 UQ5       0.062200
     73 H222        -5.5490   -11.3910     3.9180 hc         1 UQ5       0.062200
     74 H23         -5.2810   -12.8350     2.7580 ha         1 UQ5       0.343000
     75 H251        -5.2550   -13.9800     6.0200 hc         1 UQ5       0.055033
     76 H252        -4.3370   -12.9700     4.8940 hc         1 UQ5       0.055033
     77 H253        -5.8560   -12.3750     5.5790 hc         1 UQ5       0.055033
     78 H261        -6.9140   -15.4720     5.1750 hc         1 UQ5       0.076700
     79 H262        -7.4530   -15.3840     3.4920 hc         1 UQ5       0.076700
     80 H271        -4.6530   -16.1260     4.4170 hc         1 UQ5       0.063700
     81 H272        -5.1910   -16.0380     2.7340 hc         1 UQ5       0.063700
     82 H28         -6.4010   -16.8430     3.2370 ha         1 UQ5       0.377000
     83 H301        -4.1630   -17.6180     1.9340 hc         1 UQ5       0.051033
     84 H302        -4.9190   -18.9050     0.9840 hc         1 UQ5       0.051033
     85 H303        -5.6630   -17.3010     1.0510 hc         1 UQ5       0.051033
     86 H311        -7.2820   -19.8830     2.0300 hc         1 UQ5       0.051033
     87 H312        -7.0930   -19.9410     3.7880 hc         1 UQ5       0.051033
     88 H313        -5.8240   -20.5900     2.7410 hc         1 UQ5       0.051033
@<TRIPOS>BOND
     1     1     2 1
     2     1     6 2
     3     1     7 1
     4     2     3 1
     5     2    35 2
     6     3     4 2
     7     3    36 1
     8     4     5 1
     9     4    37 1
    10     5     6 1
    11     5    38 2
    12     6    10 1
    13     7    39 1
    14     7    40 1
    15     7    41 1
    16     8    36 1
    17     8    42 1
    18     8    43 1
    19     8    44 1
    20     9    37 1
    21     9    45 1
    22     9    46 1
    23     9    47 1
    24    10    11 1
    25    10    48 1
    26    10    49 1
    27    11    12 2
    28    11    50 1
    29    12    13 1
    30    12    14 1
    31    13    51 1
    32    13    52 1
    33    13    53 1
    34    14    15 1
    35    14    54 1
    36    14    55 1
    37    15    16 1
    38    15    56 1
    39    15    57 1
    40    16    17 2
    41    16    58 1
    42    17    18 1
    43    17    19 1
    44    18    59 1
    45    18    60 1
    46    18    61 1
    47    19    20 1
    48    19    62 1
    49    19    63 1
    50    20    21 1
    51    20    64 1
    52    20    65 1
    53    21    22 2
    54    21    66 1
    55    22    23 1
    56    22    24 1
    57    23    67 1
    58    23    68 1
    59    23    69 1
    60    24    25 1
    61    24    70 1
    62    24    71 1
    63    25    26 1
    64    25    72 1
    65    25    73 1
    66    26    27 2
    67    26    74 1
    68    27    28 1
    69    27    29 1
    70    28    75 1
    71    28    76 1
    72    28    77 1
    73    29    30 1
    74    29    78 1
    75    29    79 1
    76    30    31 1
    77    30    80 1
    78    30    81 1
    79    31    32 2
    80    31    82 1
    81    32    33 1
    82    32    34 1
    83    33    83 1
    84    33    84 1
    85    33    85 1
    86    34    86 1
    87    34    87 1
    88    34    88 1
@<TRIPOS>SUBSTRUCTURE
     1 UQ5         1 TEMP              0 ****  ****    0 ROOT
