@<TRIPOS>MOLECULE
UQ5
   88    88     1     0     0
SMALL
bcc


@<TRIPOS>ATOM
      1 C1         -1.8480    0.9120    0.6320 cc        1 UQ5     -0.123400
      2 C2         -0.8820    1.1300   -0.4770 c         1 UQ5      0.552500
      3 C3          0.5510    1.0080   -0.1300 cc        1 UQ5     -0.015100
      4 C4          0.9650    0.7800    1.1480 cd        1 UQ5      0.023900
      5 C5          0.0000    0.7760    2.2760 c         1 UQ5      0.557500
      6 C6         -1.4360    0.7340    1.9060 cd        1 UQ5     -0.133400
      7 C1M        -3.2820    0.9130    0.2550 c3        1 UQ5     -0.070900
      8 C3M         1.4810    0.2580   -2.1710 c3        1 UQ5      0.109700
      9 C4M         2.8930    1.0510    2.5290 c3        1 UQ5      0.115700
     10 C7         -2.3870    0.5040    3.0350 c3        1 UQ5     -0.012000
     11 C8         -2.7110   -0.9370    3.1910 c2        1 UQ5     -0.190200
     12 C9         -2.3990   -1.6860    4.2610 c2        1 UQ5     -0.089400
     13 C10        -1.6540   -1.1640    5.4320 c3        1 UQ5     -0.073900
     14 C11        -2.8160   -3.1180    4.3350 c3        1 UQ5     -0.045200
     15 C12        -1.6490   -4.0530    4.0750 c3        1 UQ5     -0.043200
     16 C13        -2.0460   -5.4760    4.1820 c2        1 UQ5     -0.176200
     17 C14        -1.2400   -6.4950    3.8410 c2        1 UQ5     -0.120400
     18 C15         0.1280   -6.2760    3.3140 c3        1 UQ5     -0.059900
     19 C16        -1.6780   -7.9120    3.9850 c3        1 UQ5     -0.039200
     20 C17        -1.8640   -8.5810    2.6350 c3        1 UQ5     -0.043200
     21 C18        -2.2430  -10.0070    2.7690 c2        1 UQ5     -0.174200
     22 C19        -2.6140  -10.7740    1.7310 c2        1 UQ5     -0.123400
     23 C20        -2.6850  -10.2470    0.3470 c3        1 UQ5     -0.058900
     24 C21        -2.9670  -12.2100    1.9150 c3        1 UQ5     -0.039200
     25 C22        -4.4460  -12.4590    1.6730 c3        1 UQ5     -0.043200
     26 C23        -4.7950  -13.8920    1.8000 c2        1 UQ5     -0.174200
     27 C24        -6.0580  -14.3500    1.7840 c2        1 UQ5     -0.123400
     28 C25        -7.2230  -13.4430    1.6470 c3        1 UQ5     -0.058900
     29 C26        -6.3570  -15.8060    1.8970 c3        1 UQ5     -0.038200
     30 C27        -7.0360  -16.1380    3.2130 c3        1 UQ5     -0.043200
     31 C28        -7.3880  -17.5730    3.3110 c2        1 UQ5     -0.177200
     32 C29        -7.8790  -18.1400    4.4250 c2        1 UQ5     -0.124400
     33 C30        -8.1050  -17.3670    5.6700 c3        1 UQ5     -0.057900
     34 C31        -8.2230  -19.5810    4.4830 c3        1 UQ5     -0.057900
     35 O2         -1.2550    1.3910   -1.6260 o         1 UQ5     -0.496100
     36 O3          1.4890    1.2260   -1.1180 os        1 UQ5     -0.307900
     37 O4          2.2950    0.5010    1.3520 os        1 UQ5     -0.305900
     38 O5          0.3740    0.8150    3.4550 o         1 UQ5     -0.508100
     39 H1M1       -3.7910    1.8100    0.6940 hc        1 UQ5      0.062700
     40 H1M2       -3.4080    0.9480   -0.8560 hc        1 UQ5      0.062700
     41 H1M3       -3.7910   -0.0040    0.6450 hc        1 UQ5      0.062700
     42 H3M1        1.7260   -0.7530   -1.7650 h1        1 UQ5      0.049033
     43 H3M2        2.2900    0.6190   -2.8550 h1        1 UQ5      0.049033
     44 H3M3        0.4930    0.2490   -2.6910 h1        1 UQ5      0.049033
     45 H4M1        2.6610    0.3970    3.4050 h1        1 UQ5      0.053033
     46 H4M2        2.5430    2.0920    2.7160 h1        1 UQ5      0.053033
     47 H4M3        3.9870    1.0310    2.2910 h1        1 UQ5      0.053033
     48 H71        -1.9420    0.9200    3.9820 hc        1 UQ5      0.069200
     49 H72        -3.3420    1.0690    2.8420 hc        1 UQ5      0.069200
     50 H8         -3.2600   -1.3810    2.3430 ha        1 UQ5      0.121000
     51 H101       -2.3060   -0.4740    6.0260 hc        1 UQ5      0.050367
     52 H102       -1.3220   -1.9940    6.1020 hc        1 UQ5      0.050367
     53 H103       -0.7480   -0.5920    5.1040 hc        1 UQ5      0.050367
     54 H111       -3.2400   -3.3220    5.3560 hc        1 UQ5      0.048200
     55 H112       -3.6290   -3.3280    3.5900 hc        1 UQ5      0.048200
     56 H121       -0.8250   -3.8390    4.8110 hc        1 UQ5      0.052200
     57 H122       -1.2280   -3.8510    3.0520 hc        1 UQ5      0.052200
     58 H13        -3.0590   -5.6690    4.5700 ha        1 UQ5      0.123000
     59 H151        0.7080   -7.2300    3.2730 hc        1 UQ5      0.042033
     60 H152        0.0780   -5.8490    2.2800 hc        1 UQ5      0.042033
     61 H153        0.6850   -5.5500    3.9580 hc        1 UQ5      0.042033
     62 H161       -0.9060   -8.4740    4.5770 hc        1 UQ5      0.046200
     63 H162       -2.6410   -7.9680    4.5600 hc        1 UQ5      0.046200
     64 H171       -2.6520   -8.0320    2.0500 hc        1 UQ5      0.050200
     65 H172       -0.9090   -8.5020    2.0430 hc        1 UQ5      0.050200
     66 H18        -2.2010  -10.4250    3.7880 ha        1 UQ5      0.123000
     67 H201       -2.8230  -11.0690   -0.3970 hc        1 UQ5      0.041367
     68 H202       -3.5450   -9.5360    0.2500 hc        1 UQ5      0.041367
     69 H203       -1.7480   -9.6910    0.0910 hc        1 UQ5      0.041367
     70 H211       -2.3620  -12.8290    1.1980 hc        1 UQ5      0.046200
     71 H212       -2.7010  -12.5500    2.9510 hc        1 UQ5      0.046200
     72 H221       -5.0510  -11.8540    2.4030 hc        1 UQ5      0.050200
     73 H222       -4.7230  -12.0950    0.6450 hc        1 UQ5      0.050200
     74 H23        -3.9480  -14.5900    1.9060 ha        1 UQ5      0.123000
     75 H251       -7.0670  -12.7320    0.7970 hc        1 UQ5      0.041367
     76 H252       -7.3540  -12.8410    2.5810 hc        1 UQ5      0.041367
     77 H253       -8.1650  -14.0150    1.4620 hc        1 UQ5      0.041367
     78 H261       -5.4140  -16.4080    1.8070 hc        1 UQ5      0.045700
     79 H262       -7.0260  -16.1080    1.0450 hc        1 UQ5      0.045700
     80 H271       -6.3600  -15.8550    4.0660 hc        1 UQ5      0.049700
     81 H272       -7.9680  -15.5160    3.3210 hc        1 UQ5      0.049700
     82 H28        -7.2270  -18.1750    2.4010 ha        1 UQ5      0.122000
     83 H301       -8.7120  -16.4510    5.4580 hc        1 UQ5      0.040533
     84 H302       -7.1260  -17.0380    6.1030 hc        1 UQ5      0.040533
     85 H303       -8.6420  -17.9790    6.4360 hc        1 UQ5      0.040533
     86 H311       -7.6460  -20.0800    5.3000 hc        1 UQ5      0.040533
     87 H312       -7.9940  -20.1000    3.5200 hc        1 UQ5      0.040533
     88 H313       -9.3140  -19.7050    4.7000 hc        1 UQ5      0.040533
@<TRIPOS>BOND
     1    1    2 1   
     2    1    6 2   
     3    1    7 1   
     4    2    3 1   
     5    2   35 2   
     6    3    4 2   
     7    3   36 1   
     8    4    5 1   
     9    4   37 1   
    10    5    6 1   
    11    5   38 2   
    12    6   10 1   
    13    7   39 1   
    14    7   40 1   
    15    7   41 1   
    16    8   36 1   
    17    8   42 1   
    18    8   43 1   
    19    8   44 1   
    20    9   37 1   
    21    9   45 1   
    22    9   46 1   
    23    9   47 1   
    24   10   11 1   
    25   10   48 1   
    26   10   49 1   
    27   11   12 2   
    28   11   50 1   
    29   12   13 1   
    30   12   14 1   
    31   13   51 1   
    32   13   52 1   
    33   13   53 1   
    34   14   15 1   
    35   14   54 1   
    36   14   55 1   
    37   15   16 1   
    38   15   56 1   
    39   15   57 1   
    40   16   17 2   
    41   16   58 1   
    42   17   18 1   
    43   17   19 1   
    44   18   59 1   
    45   18   60 1   
    46   18   61 1   
    47   19   20 1   
    48   19   62 1   
    49   19   63 1   
    50   20   21 1   
    51   20   64 1   
    52   20   65 1   
    53   21   22 2   
    54   21   66 1   
    55   22   23 1   
    56   22   24 1   
    57   23   67 1   
    58   23   68 1   
    59   23   69 1   
    60   24   25 1   
    61   24   70 1   
    62   24   71 1   
    63   25   26 1   
    64   25   72 1   
    65   25   73 1   
    66   26   27 2   
    67   26   74 1   
    68   27   28 1   
    69   27   29 1   
    70   28   75 1   
    71   28   76 1   
    72   28   77 1   
    73   29   30 1   
    74   29   78 1   
    75   29   79 1   
    76   30   31 1   
    77   30   80 1   
    78   30   81 1   
    79   31   32 2   
    80   31   82 1   
    81   32   33 1   
    82   32   34 1   
    83   33   83 1   
    84   33   84 1   
    85   33   85 1   
    86   34   86 1   
    87   34   87 1   
    88   34   88 1   
@<TRIPOS>SUBSTRUCTURE
     1 UQ5         1 TEMP              0 ****  ****    0 ROOT
