@<TRIPOS>MOLECULE
molecule
  103   103     1     0     0
SMALL
bcc


@<TRIPOS>ATOM
      1 C1           0.0000     0.0000     0.0000 ca         1 UQ6      -0.085300
      2 C1M         -0.7520     0.0010    -1.3060 c3         1 UQ6      -0.052800
      3 C2           1.3850     0.0000     0.0000 ca         1 UQ6       0.091100
      4 O2           2.0660     0.0010    -1.1780 oh         1 UQ6      -0.499100
      5 C3           2.0800     0.0000     1.2040 ca         1 UQ6       0.068100
      6 C4           1.3830    -0.0060     2.4050 ca         1 UQ6       0.051100
      7 C5          -0.0080    -0.0020     2.3980 ca         1 UQ6       0.094100
      8 O5          -0.6930    -0.0050     3.5740 oh         1 UQ6      -0.510100
      9 C6          -0.6950    -0.0020     1.1960 ca         1 UQ6      -0.039300
     10 O3           3.4410     0.0000     1.2060 os         1 UQ6      -0.303900
     11 C3M          3.8540     1.3680     1.2060 c3         1 UQ6       0.118700
     12 O4           2.0600    -0.0070     3.5850 os         1 UQ6      -0.323900
     13 C4M          2.2600    -1.3750     3.9450 c3         1 UQ6       0.121700
     14 C7          -2.2010    -0.0040     1.1910 c3         1 UQ6      -0.039900
     15 C8          -2.7010    -1.4250     1.1870 c2         1 UQ6      -0.455200
     16 C9          -3.6100    -1.8000     2.0530 c2         1 UQ6       0.036600
     17 C10         -4.2750    -0.7790     2.9400 c3         1 UQ6      -0.126900
     18 C11         -3.9900    -3.2550     2.1630 c3         1 UQ6      -0.074200
     19 C12         -3.0920    -3.9410     3.1930 c3         1 UQ6      -0.082200
     20 C13         -3.4720    -5.3950     3.3030 c2         1 UQ6      -0.489200
     21 C14         -3.9620    -5.8610     4.4250 c2         1 UQ6       0.020600
     22 C15         -4.3090    -4.9170     5.5450 c3         1 UQ6      -0.124900
     23 C16         -4.1780    -7.3430     4.5950 c3         1 UQ6      -0.037200
     24 C17         -2.9160    -7.9800     5.1770 c3         1 UQ6      -0.047200
     25 C18         -3.1330    -9.4610     5.3460 c2         1 UQ6      -0.168200
     26 C19         -2.3260   -10.3120     4.7620 c2         1 UQ6      -0.132400
     27 C20         -2.4620   -11.7880     5.0340 c3         1 UQ6      -0.051900
     28 C21         -1.2620    -9.8140     3.8160 c3         1 UQ6      -0.078200
     29 C22          0.0390    -9.5900     4.5860 c3         1 UQ6      -0.089200
     30 C23          1.1030    -9.0920     3.6420 c2         1 UQ6      -0.507200
     31 C24          2.1740    -9.8140     3.4230 c2         1 UQ6       0.027600
     32 C25          2.2650   -11.2150     3.9720 c3         1 UQ6      -0.123900
     33 C26          3.3160    -9.2440     2.6210 c3         1 UQ6      -0.075200
     34 C27          4.2960    -8.5380     3.5590 c3         1 UQ6      -0.080200
     35 C28          5.4370    -7.9690     2.7580 c2         1 UQ6      -0.527200
     36 C29          5.6150    -6.6720     2.7020 c2         1 UQ6       0.043600
     37 C30          4.5830    -5.7430     3.2900 c3         1 UQ6      -0.130900
     38 C31          6.8500    -6.1080     2.0500 c3         1 UQ6      -0.041200
     39 C32          6.5820    -5.8770     0.5620 c3         1 UQ6      -0.043200
     40 C33          7.8180    -5.3140    -0.0910 c2         1 UQ6      -0.181200
     41 C34          8.2790    -5.8510    -1.1930 c2         1 UQ6      -0.130400
     42 C35          9.6040    -5.4010    -1.7520 c3         1 UQ6      -0.051900
     43 C36          7.4850    -6.9170    -1.9020 c3         1 UQ6      -0.051900
     44 H1M1        -0.0540    -0.1210    -2.1250 hc         1 UQ6       0.052367
     45 H1M2        -1.4630    -0.8170    -1.3140 hc         1 UQ6       0.052367
     46 H1M3        -1.2800     0.9400    -1.4190 hc         1 UQ6       0.052367
     47 HO2          2.0640     0.8710    -1.5410 ho         1 UQ6       0.413000
     48 HO5         -0.6520     0.8530     3.9630 ho         1 UQ6       0.420000
     49 H3M1         4.1990     1.6410     0.2160 h1         1 UQ6       0.036700
     50 H3M2         3.0180     1.9980     1.4840 h1         1 UQ6       0.036700
     51 H3M3         4.6590     1.5020     1.9190 h1         1 UQ6       0.036700
     52 H4M1         3.3120    -1.5470     4.1400 h1         1 UQ6       0.043367
     53 H4M2         1.9340    -2.0140     3.1340 h1         1 UQ6       0.043367
     54 H4M3         1.6870    -1.6020     4.8360 h1         1 UQ6       0.043367
     55 H71         -2.5600     0.5070     0.3050 hc         1 UQ6       0.039700
     56 H72         -2.5660     0.5050     2.0740 hc         1 UQ6       0.039700
     57 H8          -3.2400    -0.6410     0.6680 ha         1 UQ6       0.310000
     58 H101        -4.5520     0.0860     2.3490 hc         1 UQ6       0.051367
     59 H102        -5.1620    -1.2110     3.3860 hc         1 UQ6       0.051367
     60 H103        -3.5880    -0.4780     3.7210 hc         1 UQ6       0.051367
     61 H111        -3.8660    -3.7340     1.1990 hc         1 UQ6       0.063700
     62 H112        -5.0250    -3.3350     2.4750 hc         1 UQ6       0.063700
     63 H121        -3.2170    -3.4610     4.1570 hc         1 UQ6       0.069200
     64 H122        -2.0580    -3.8600     2.8810 hc         1 UQ6       0.069200
     65 H13         -4.2140    -4.6420     3.0640 ha         1 UQ6       0.329000
     66 H151        -5.0470    -4.2040     5.2010 hc         1 UQ6       0.048033
     67 H152        -4.7120    -5.4790     6.3800 hc         1 UQ6       0.048033
     68 H153        -3.4170    -4.3900     5.8620 hc         1 UQ6       0.048033
     69 H161        -4.3960    -7.7890     3.6310 hc         1 UQ6       0.054200
     70 H162        -5.0110    -7.5120     5.2670 hc         1 UQ6       0.054200
     71 H171        -2.0830    -7.8110     4.5050 hc         1 UQ6       0.062700
     72 H172        -2.6980    -7.5350     6.1400 hc         1 UQ6       0.062700
     73 H18         -3.8970    -9.8200     6.0240 ha         1 UQ6       0.124000
     74 H201        -3.4550   -12.1160     4.7550 hc         1 UQ6       0.041033
     75 H202        -1.7250   -12.3310     4.4550 hc         1 UQ6       0.041033
     76 H203        -2.3020   -11.9770     6.0890 hc         1 UQ6       0.041033
     77 H211        -1.0990   -10.5500     3.0380 hc         1 UQ6       0.066200
     78 H212        -1.5840    -8.8810     3.3700 hc         1 UQ6       0.066200
     79 H221         0.3600   -10.5240     5.0320 hc         1 UQ6       0.059700
     80 H222        -0.1240    -8.8550     5.3650 hc         1 UQ6       0.059700
     81 H23          0.3340    -9.7750     3.3030 ha         1 UQ6       0.339000
     82 H251         2.2350   -11.1810     5.0540 hc         1 UQ6       0.050700
     83 H252         1.4310   -11.8010     3.6060 hc         1 UQ6       0.050700
     84 H253         3.1950   -11.6690     3.6510 hc         1 UQ6       0.050700
     85 H261         3.8280   -10.0440     2.1010 hc         1 UQ6       0.065200
     86 H262         2.9310    -8.5330     1.9000 hc         1 UQ6       0.065200
     87 H271         3.7850    -7.7370     4.0790 hc         1 UQ6       0.062700
     88 H272         4.6800    -9.2490     4.2800 hc         1 UQ6       0.062700
     89 H28          4.4440    -8.0480     2.3330 ha         1 UQ6       0.338000
     90 H301         4.9050    -4.7170     3.1620 hc         1 UQ6       0.053700
     91 H302         4.4660    -5.9560     4.3460 hc         1 UQ6       0.053700
     92 H303         3.6350    -5.8900     2.7850 hc         1 UQ6       0.053700
     93 H311         7.6700    -6.8070     2.1650 hc         1 UQ6       0.059700
     94 H312         7.1090    -5.1670     2.5200 hc         1 UQ6       0.059700
     95 H321         6.3220    -6.8180     0.0920 hc         1 UQ6       0.053700
     96 H322         5.7620    -5.1780     0.4470 hc         1 UQ6       0.053700
     97 H33          8.3910    -4.5470     0.4160 ha         1 UQ6       0.122000
     98 H351        10.1230    -4.8010    -1.0140 hc         1 UQ6       0.040367
     99 H352         9.4380    -4.8120    -2.6460 hc         1 UQ6       0.040367
    100 H353        10.2050    -6.2690    -1.9980 hc         1 UQ6       0.040367
    101 H361         7.9140    -7.0970    -2.8800 hc         1 UQ6       0.040367
    102 H362         7.5120    -7.8320    -1.3220 hc         1 UQ6       0.040367
    103 H363         6.4580    -6.5900    -2.0120 hc         1 UQ6       0.040367
@<TRIPOS>BOND
     1     1     2 1
     2     1     3 ar
     3     1     9 ar
     4     2    44 1
     5     2    45 1
     6     2    46 1
     7     3     4 1
     8     3     5 ar
     9     4    47 1
    10     5     6 ar
    11     5    10 1
    12     6     7 ar
    13     6    12 1
    14     7     8 1
    15     7     9 ar
    16     8    48 1
    17     9    14 1
    18    10    11 1
    19    11    49 1
    20    11    50 1
    21    11    51 1
    22    12    13 1
    23    13    52 1
    24    13    53 1
    25    13    54 1
    26    14    15 1
    27    14    55 1
    28    14    56 1
    29    15    16 2
    30    15    57 1
    31    16    17 1
    32    16    18 1
    33    17    58 1
    34    17    59 1
    35    17    60 1
    36    18    19 1
    37    18    61 1
    38    18    62 1
    39    19    20 1
    40    19    63 1
    41    19    64 1
    42    20    21 2
    43    20    65 1
    44    21    22 1
    45    21    23 1
    46    22    66 1
    47    22    67 1
    48    22    68 1
    49    23    24 1
    50    23    69 1
    51    23    70 1
    52    24    25 1
    53    24    71 1
    54    24    72 1
    55    25    26 2
    56    25    73 1
    57    26    27 1
    58    26    28 1
    59    27    74 1
    60    27    75 1
    61    27    76 1
    62    28    29 1
    63    28    77 1
    64    28    78 1
    65    29    30 1
    66    29    79 1
    67    29    80 1
    68    30    31 2
    69    30    81 1
    70    31    32 1
    71    31    33 1
    72    32    82 1
    73    32    83 1
    74    32    84 1
    75    33    34 1
    76    33    85 1
    77    33    86 1
    78    34    35 1
    79    34    87 1
    80    34    88 1
    81    35    36 2
    82    35    89 1
    83    36    37 1
    84    36    38 1
    85    37    90 1
    86    37    91 1
    87    37    92 1
    88    38    39 1
    89    38    93 1
    90    38    94 1
    91    39    40 1
    92    39    95 1
    93    39    96 1
    94    40    41 2
    95    40    97 1
    96    41    42 1
    97    41    43 1
    98    42    98 1
    99    42    99 1
   100    42   100 1
   101    43   101 1
   102    43   102 1
   103    43   103 1
@<TRIPOS>SUBSTRUCTURE
     1 UQ6         1 TEMP              0 ****  ****    0 ROOT
