@<TRIPOS>MOLECULE
UQ6
  103   103     1     0     0
SMALL
bcc


@<TRIPOS>ATOM
      1 C1         -2.0280    1.4900   -0.0370 ca        1 UQ6     -0.061300
      2 C1M        -3.4930    1.4150   -0.2470 c3        1 UQ6     -0.051800
      3 C2         -1.1880    1.9000   -1.0920 ca        1 UQ6      0.098100
      4 O2         -1.7770    2.2050   -2.2990 oh        1 UQ6     -0.495100
      5 C3          0.2050    1.9870   -0.9160 ca        1 UQ6      0.024100
      6 C4          0.7670    1.6550    0.3230 ca        1 UQ6      0.016100
      7 C5         -0.0710    1.2580    1.3820 ca        1 UQ6      0.107100
      8 O5          0.4430    0.9530    2.6220 oh        1 UQ6     -0.495100
      9 C6         -1.4670    1.1740    1.2080 ca        1 UQ6     -0.072300
     10 O3          0.9720    2.3060   -2.0280 os        1 UQ6     -0.350900
     11 C3M         1.6490    3.5620   -1.9160 c3        1 UQ6      0.109700
     12 O4          2.1200    1.7980    0.5970 os        1 UQ6     -0.350900
     13 C4M         2.9470    0.8630   -0.1040 c3        1 UQ6      0.108700
     14 C7         -2.3310    0.7650    2.3530 c3        1 UQ6      0.001100
     15 C8         -2.8090   -0.6360    2.2470 c2        1 UQ6     -0.164200
     16 C9         -3.6670   -1.1850    3.1220 c2        1 UQ6     -0.127400
     17 C10        -4.2250   -0.4210    4.2640 c3        1 UQ6     -0.059900
     18 C11        -4.1250   -2.5960    2.9780 c3        1 UQ6     -0.037200
     19 C12        -3.4620   -3.5050    3.9980 c3        1 UQ6     -0.044200
     20 C13        -3.9400   -4.9030    3.8890 c2        1 UQ6     -0.173200
     21 C14        -3.3880   -5.9280    4.5580 c2        1 UQ6     -0.124400
     22 C15        -2.2320   -5.7440    5.4690 c3        1 UQ6     -0.058900
     23 C16        -3.9170   -7.3160    4.4280 c3        1 UQ6     -0.038200
     24 C17        -2.9370   -8.2220    3.7030 c3        1 UQ6     -0.045200
     25 C18        -3.4260   -9.6190    3.6320 c2        1 UQ6     -0.169200
     26 C19        -2.6990  -10.6530    3.1830 c2        1 UQ6     -0.125400
     27 C20        -3.2570  -12.0280    3.1300 c3        1 UQ6     -0.056900
     28 C21        -1.2980  -10.5160    2.6920 c3        1 UQ6     -0.042200
     29 C22        -0.2920  -10.7580    3.8030 c3        1 UQ6     -0.042200
     30 C23         1.1040  -10.6540    3.3180 c2        1 UQ6     -0.173200
     31 C24         2.1740  -10.9700    4.0670 c2        1 UQ6     -0.124400
     32 C25         2.0460  -11.4710    5.4560 c3        1 UQ6     -0.058900
     33 C26         3.5590  -10.8570    3.5270 c3        1 UQ6     -0.039200
     34 C27         4.2750   -9.6350    4.0730 c3        1 UQ6     -0.043200
     35 C28         5.6620   -9.5310    3.5630 c2        1 UQ6     -0.173200
     36 C29         6.4470   -8.4610    3.7680 c2        1 UQ6     -0.124400
     37 C30         5.9790   -7.2740    4.5240 c3        1 UQ6     -0.058900
     38 C31         7.8430   -8.4120    3.2500 c3        1 UQ6     -0.038200
     39 C32         7.9920   -7.3880    2.1390 c3        1 UQ6     -0.043200
     40 C33         9.3890   -7.2920    1.6550 c2        1 UQ6     -0.177200
     41 C34         9.7530   -6.5650    0.5860 c2        1 UQ6     -0.124400
     42 C35        11.1640   -6.4900    0.1360 c3        1 UQ6     -0.057400
     43 C36         8.7730   -5.7960   -0.2170 c3        1 UQ6     -0.057400
     44 H1M1       -3.9940    2.2780    0.2600 hc        1 UQ6      0.054033
     45 H1M2       -3.9000    0.4670    0.1870 hc        1 UQ6      0.054033
     46 H1M3       -3.7460    1.4500   -1.3360 hc        1 UQ6      0.054033
     47 HO2        -1.0670    2.4070   -2.9290 ho        1 UQ6      0.434000
     48 HO5         1.4030    1.0990    2.5860 ho        1 UQ6      0.434000
     49 H3M1        0.9070    4.3930   -1.8380 h1        1 UQ6      0.048367
     50 H3M2        2.2310    3.6330   -2.8680 h1        1 UQ6      0.048367
     51 H3M3        2.3270    3.5570   -1.0280 h1        1 UQ6      0.048367
     52 H4M1        2.7030   -0.1790    0.2140 h1        1 UQ6      0.048033
     53 H4M2        3.9830    1.1440    0.2070 h1        1 UQ6      0.048033
     54 H4M3        2.8110    0.9790   -1.2060 h1        1 UQ6      0.048033
     55 H71        -3.2170    1.4590    2.4100 hc        1 UQ6      0.066700
     56 H72        -1.7600    0.8850    3.3170 hc        1 UQ6      0.066700
     57 H8         -2.4110   -1.2240    1.4050 ha        1 UQ6      0.130000
     58 H101       -4.9120    0.3800    3.8930 hc        1 UQ6      0.041367
     59 H102       -3.4040    0.0710    4.8450 hc        1 UQ6      0.041367
     60 H103       -4.7980   -1.0840    4.9570 hc        1 UQ6      0.041367
     61 H111       -5.2400   -2.6360    3.1100 hc        1 UQ6      0.045700
     62 H112       -3.8980   -2.9760    1.9460 hc        1 UQ6      0.045700
     63 H121       -3.6710   -3.1210    5.0350 hc        1 UQ6      0.051200
     64 H122       -2.3470   -3.4730    3.8600 hc        1 UQ6      0.051200
     65 H13        -4.7970   -5.0710    3.2160 ha        1 UQ6      0.122000
     66 H151       -2.0470   -6.6580    6.0830 hc        1 UQ6      0.041367
     67 H152       -1.3080   -5.5240    4.8760 hc        1 UQ6      0.041367
     68 H153       -2.4110   -4.8820    6.1600 hc        1 UQ6      0.041367
     69 H161       -4.8950   -7.3110    3.8760 hc        1 UQ6      0.045700
     70 H162       -4.1180   -7.7280    5.4540 hc        1 UQ6      0.045700
     71 H171       -2.7700   -7.8300    2.6620 hc        1 UQ6      0.051700
     72 H172       -1.9430   -8.1890    4.2270 hc        1 UQ6      0.051700
     73 H18        -4.4620   -9.7800    3.9750 ha        1 UQ6      0.121000
     74 H201       -2.5740  -12.7390    3.6590 hc        1 UQ6      0.039700
     75 H202       -3.3510  -12.3620    2.0660 hc        1 UQ6      0.039700
     76 H203       -4.2650  -12.0840    3.6080 hc        1 UQ6      0.039700
     77 H211       -1.1390   -9.4900    2.2640 hc        1 UQ6      0.046700
     78 H212       -1.1200  -11.2520    1.8630 hc        1 UQ6      0.046700
     79 H221       -0.4580  -10.0090    4.6260 hc        1 UQ6      0.049700
     80 H222       -0.4640  -11.7750    4.2500 hc        1 UQ6      0.049700
     81 H23         1.2330  -10.2920    2.2850 ha        1 UQ6      0.123000
     82 H251        1.3160  -10.8510    6.0340 hc        1 UQ6      0.041367
     83 H252        1.6710  -12.5270    5.4490 hc        1 UQ6      0.041367
     84 H253        3.0280  -11.4500    5.9880 hc        1 UQ6      0.041367
     85 H261        4.1360  -11.7820    3.8010 hc        1 UQ6      0.046200
     86 H262        3.5360  -10.8000    2.4060 hc        1 UQ6      0.046200
     87 H271        4.2930   -9.6810    5.1970 hc        1 UQ6      0.050200
     88 H272        3.6990   -8.7090    3.7980 hc        1 UQ6      0.050200
     89 H28         6.0350  -10.3990    2.9950 ha        1 UQ6      0.123000
     90 H301        6.8220   -6.5770    4.7520 hc        1 UQ6      0.041033
     91 H302        5.5070   -7.5860    5.4900 hc        1 UQ6      0.041033
     92 H303        5.2110   -6.7170    3.9300 hc        1 UQ6      0.041033
     93 H311        8.5370   -8.1500    4.0940 hc        1 UQ6      0.045700
     94 H312        8.1540   -9.4200    2.8660 hc        1 UQ6      0.045700
     95 H321        7.3140   -7.6600    1.2840 hc        1 UQ6      0.049700
     96 H322        7.6550   -6.3800    2.5100 hc        1 UQ6      0.049700
     97 H33        10.1410   -7.8560    2.2300 ha        1 UQ6      0.122000
     98 H351       11.8340   -7.1220    0.7670 hc        1 UQ6      0.040200
     99 H352       11.2460   -6.8360   -0.9250 hc        1 UQ6      0.040200
    100 H353       11.5260   -5.4320    0.1860 hc        1 UQ6      0.040200
    101 H361        8.0910   -6.4950   -0.7650 hc        1 UQ6      0.040200
    102 H362        9.2840   -5.1430   -0.9660 hc        1 UQ6      0.040200
    103 H363        8.1430   -5.1510    0.4450 hc        1 UQ6      0.040200
@<TRIPOS>BOND
     1    1    2 1   
     2    1    3 ar  
     3    1    9 ar  
     4    2   44 1   
     5    2   45 1   
     6    2   46 1   
     7    3    4 1   
     8    3    5 ar  
     9    4   47 1   
    10    5    6 ar  
    11    5   10 1   
    12    6    7 ar  
    13    6   12 1   
    14    7    8 1   
    15    7    9 ar  
    16    8   48 1   
    17    9   14 1   
    18   10   11 1   
    19   11   49 1   
    20   11   50 1   
    21   11   51 1   
    22   12   13 1   
    23   13   52 1   
    24   13   53 1   
    25   13   54 1   
    26   14   15 1   
    27   14   55 1   
    28   14   56 1   
    29   15   16 2   
    30   15   57 1   
    31   16   17 1   
    32   16   18 1   
    33   17   58 1   
    34   17   59 1   
    35   17   60 1   
    36   18   19 1   
    37   18   61 1   
    38   18   62 1   
    39   19   20 1   
    40   19   63 1   
    41   19   64 1   
    42   20   21 2   
    43   20   65 1   
    44   21   22 1   
    45   21   23 1   
    46   22   66 1   
    47   22   67 1   
    48   22   68 1   
    49   23   24 1   
    50   23   69 1   
    51   23   70 1   
    52   24   25 1   
    53   24   71 1   
    54   24   72 1   
    55   25   26 2   
    56   25   73 1   
    57   26   27 1   
    58   26   28 1   
    59   27   74 1   
    60   27   75 1   
    61   27   76 1   
    62   28   29 1   
    63   28   77 1   
    64   28   78 1   
    65   29   30 1   
    66   29   79 1   
    67   29   80 1   
    68   30   31 2   
    69   30   81 1   
    70   31   32 1   
    71   31   33 1   
    72   32   82 1   
    73   32   83 1   
    74   32   84 1   
    75   33   34 1   
    76   33   85 1   
    77   33   86 1   
    78   34   35 1   
    79   34   87 1   
    80   34   88 1   
    81   35   36 2   
    82   35   89 1   
    83   36   37 1   
    84   36   38 1   
    85   37   90 1   
    86   37   91 1   
    87   37   92 1   
    88   38   39 1   
    89   38   93 1   
    90   38   94 1   
    91   39   40 1   
    92   39   95 1   
    93   39   96 1   
    94   40   41 2   
    95   40   97 1   
    96   41   42 1   
    97   41   43 1   
    98   42   98 1   
    99   42   99 1   
   100   42  100 1   
   101   43  101 1   
   102   43  102 1   
   103   43  103 1   
@<TRIPOS>SUBSTRUCTURE
     1 UQ6         1 TEMP              0 ****  ****    0 ROOT
