@<TRIPOS>MOLECULE
molecule
  114   114     1     0     0
SMALL
bcc


@<TRIPOS>ATOM
      1 C1           0.0000     0.0000     0.0000 c          1 UQ7       0.550500
      2 C2           1.4740     0.0000     0.0000 cc         1 UQ7      -0.001100
      3 C3           2.1490     0.0000     1.1730 cd         1 UQ7       0.012900
      4 C4           1.4060    -0.0060     2.4470 c          1 UQ7       0.536500
      5 C5          -0.0730     0.0010     2.4410 cc         1 UQ7      -0.079400
      6 C6          -0.7390     0.0010     1.2800 cd         1 UQ7      -0.207400
      7 CM2          1.9170    -1.2700    -1.7890 c3         1 UQ7       0.112700
      8 CM3          3.9180     1.2680     1.6910 c3         1 UQ7       0.112700
      9 CM5         -0.8310     0.0010     3.7430 c3         1 UQ7      -0.061900
     10 C7          -2.2460     0.0020     1.2790 c3         1 UQ7      -0.035000
     11 C8          -2.7470     1.4220     1.2780 c2         1 UQ7      -0.552200
     12 C9          -3.6130     1.8110     0.3760 c2         1 UQ7       0.026600
     13 C10         -4.2320     0.8030    -0.5590 c3         1 UQ7      -0.143900
     14 C11         -3.9910     3.2670     0.2700 c3         1 UQ7      -0.002200
     15 C12         -3.0450     3.9700    -0.7030 c3         1 UQ7      -0.080200
     16 C13         -3.4230     5.4250    -0.8080 c2         1 UQ7      -0.507200
     17 C14         -2.5170     6.3530    -0.6190 c2         1 UQ7       0.035600
     18 C15         -1.0680     5.9680    -0.4600 c3         1 UQ7      -0.130900
     19 C16         -2.9220     7.8020    -0.5610 c3         1 UQ7       0.000800
     20 O1          -0.6080    -0.0000    -1.0510 o          1 UQ7      -0.517100
     21 O2           2.1550    -0.0010    -1.1750 os         1 UQ7      -0.287900
     22 O3           3.5060    -0.0000     1.1770 os         1 UQ7      -0.287900
     23 O4           2.0090    -0.0050     3.5010 o          1 UQ7      -0.473100
     24 C17         -3.2470     8.1840     0.8840 c3         1 UQ7      -0.077200
     25 C18         -3.6530     9.6330     0.9420 c2         1 UQ7      -0.550200
     26 C19         -4.7840     9.9740     1.5070 c2         1 UQ7       0.020600
     27 C20         -5.7330     8.9110     1.9950 c3         1 UQ7      -0.138900
     28 C21         -5.1370    11.4300     1.6670 c3         1 UQ7       0.004800
     29 C22         -5.9050    11.9070     0.4330 c3         1 UQ7      -0.074200
     30 C23         -6.2580    13.3640     0.5930 c2         1 UQ7      -0.554200
     31 C24         -5.7740    14.2510    -0.2400 c2         1 UQ7       0.014600
     32 C25         -4.7330    13.8450    -1.2520 c3         1 UQ7      -0.140900
     33 C26         -6.2570    15.6780    -0.1860 c3         1 UQ7      -0.001200
     34 C27         -5.3780    16.4770     0.7760 c3         1 UQ7      -0.070200
     35 C28         -5.8610    17.9040     0.8300 c2         1 UQ7      -0.525200
     36 C29         -6.1180    18.4660     1.9840 c2         1 UQ7       0.049600
     37 C30         -5.7680    17.7510     3.2640 c3         1 UQ7      -0.129900
     38 C31         -6.7630    19.8270     2.0340 c3         1 UQ7      -0.073200
     39 C32         -8.2840    19.6700     2.0610 c3         1 UQ7      -0.081200
     40 C33         -8.9290    21.0310     2.1110 c2         1 UQ7      -0.521200
     41 C34         -9.7780    21.3880     1.1800 c2         1 UQ7       0.041600
     42 C35         -9.9810    20.5120    -0.0290 c3         1 UQ7      -0.129900
     43 C36        -10.5520    22.6730     1.3180 c3         1 UQ7      -0.041200
     44 C37         -9.7640    23.8160     0.6780 c3         1 UQ7      -0.042200
     45 C38        -10.5370    25.1010     0.8160 c2         1 UQ7      -0.187200
     46 C39         -9.9990    26.1290     1.4230 c2         1 UQ7      -0.125400
     47 C40        -10.6980    27.4640     1.4110 c3         1 UQ7      -0.053400
     48 C41         -8.6770    25.9760     2.1320 c3         1 UQ7      -0.053400
     49 HM21         1.6230    -1.9880    -1.0330 h1         1 UQ7       0.046700
     50 HM22         1.1250    -1.1730    -2.5220 h1         1 UQ7       0.046700
     51 HM23         2.8220    -1.6100    -2.2770 h1         1 UQ7       0.046700
     52 HM31         4.8060     1.5990     1.1670 h1         1 UQ7       0.048033
     53 HM32         4.1360     1.1750     2.7480 h1         1 UQ7       0.048033
     54 HM33         3.1240     1.9910     1.5480 h1         1 UQ7       0.048033
     55 HM51        -1.4710    -0.8720     3.7890 hc         1 UQ7       0.069700
     56 HM52        -0.1300    -0.0220     4.5690 hc         1 UQ7       0.069700
     57 HM53        -1.4370     0.8970     3.8090 hc         1 UQ7       0.069700
     58 H71         -2.6080    -0.5090     2.1630 hc         1 UQ7       0.079200
     59 H72         -2.6060    -0.5090     0.3940 hc         1 UQ7       0.079200
     60 H8          -2.1050     0.9450     0.5490 ha         1 UQ7       0.369000
     61 H101        -3.5010     0.5010    -1.2990 hc         1 UQ7       0.055367
     62 H102        -4.5530    -0.0640     0.0060 hc         1 UQ7       0.055367
     63 H103        -5.0860     1.2470    -1.0550 hc         1 UQ7       0.055367
     64 H111        -3.9160     3.7310     1.2460 hc         1 UQ7       0.072700
     65 H112        -5.0090     3.3500    -0.0910 hc         1 UQ7       0.072700
     66 H121        -2.0270     3.8860    -0.3420 hc         1 UQ7       0.034200
     67 H122        -3.1210     3.5060    -1.6790 hc         1 UQ7       0.034200
     68 H13         -2.9880     4.8980    -1.6480 ha         1 UQ7       0.320000
     69 H151        -0.4550     6.8610    -0.4610 hc         1 UQ7       0.053033
     70 H152        -0.9350     5.4400     0.4770 hc         1 UQ7       0.053033
     71 H153        -0.7730     5.3260    -1.2810 hc         1 UQ7       0.053033
     72 H161        -3.7970     7.9570    -1.1810 hc         1 UQ7       0.070200
     73 H162        -2.1090     8.4190    -0.9240 hc         1 UQ7       0.070200
     74 H171        -4.0590     7.5660     1.2470 hc         1 UQ7       0.042200
     75 H172        -2.3710     8.0300     1.5040 hc         1 UQ7       0.042200
     76 H18         -3.3140     9.0210     1.7690 ha         1 UQ7       0.359000
     77 H201        -5.2410     8.3050     2.7460 hc         1 UQ7       0.054033
     78 H202        -6.0320     8.2840     1.1640 hc         1 UQ7       0.054033
     79 H203        -6.6090     9.3800     2.4280 hc         1 UQ7       0.054033
     80 H211        -4.2300    12.0110     1.7760 hc         1 UQ7       0.069700
     81 H212        -5.7550    11.5570     2.5480 hc         1 UQ7       0.069700
     82 H221        -5.2870    11.7800    -0.4480 hc         1 UQ7       0.042700
     83 H222        -6.8120    11.3260     0.3250 hc         1 UQ7       0.042700
     84 H23         -6.5530    12.6900    -0.2020 ha         1 UQ7       0.364000
     85 H251        -5.1520    13.1070    -1.9250 hc         1 UQ7       0.053033
     86 H252        -3.8770    13.4230    -0.7400 hc         1 UQ7       0.053033
     87 H253        -4.4220    14.7140    -1.8180 hc         1 UQ7       0.053033
     88 H261        -7.2840    15.6980     0.1610 hc         1 UQ7       0.067200
     89 H262        -6.2020    16.1160    -1.1750 hc         1 UQ7       0.067200
     90 H271        -4.3520    16.4570     0.4290 hc         1 UQ7       0.038200
     91 H272        -5.4340    16.0400     1.7650 hc         1 UQ7       0.038200
     92 H28         -4.8120    17.6660     0.9580 ha         1 UQ7       0.322000
     93 H301        -5.9060    18.4220     4.1030 hc         1 UQ7       0.055033
     94 H302        -6.4120    16.8880     3.3830 hc         1 UQ7       0.055033
     95 H303        -4.7340    17.4280     3.2270 hc         1 UQ7       0.055033
     96 H311        -6.4380    20.3490     2.9260 hc         1 UQ7       0.063700
     97 H312        -6.4740    20.3960     1.1580 hc         1 UQ7       0.063700
     98 H321        -8.6100    19.1490     1.1690 hc         1 UQ7       0.064700
     99 H322        -8.5730    19.1020     2.9370 hc         1 UQ7       0.064700
    100 H33         -8.0440    20.8560     1.5110 ha         1 UQ7       0.334000
    101 H351       -10.7310    20.9550    -0.6740 hc         1 UQ7       0.052367
    102 H352        -9.0470    20.4230    -0.5710 hc         1 UQ7       0.052367
    103 H353       -10.3100    19.5300     0.2870 hc         1 UQ7       0.052367
    104 H361       -10.7100    22.8880     2.3680 hc         1 UQ7       0.060700
    105 H362       -11.5100    22.5730     0.8220 hc         1 UQ7       0.060700
    106 H371        -8.8060    23.9160     1.1740 hc         1 UQ7       0.051200
    107 H372        -9.6050    23.6010    -0.3720 hc         1 UQ7       0.051200
    108 H38        -11.4870    25.2140     0.3070 ha         1 UQ7       0.121000
    109 H401        -9.9700    28.2530     1.5550 hc         1 UQ7       0.041867
    110 H402       -11.4290    27.4960     2.2100 hc         1 UQ7       0.041867
    111 H403       -11.1970    27.6020     0.4600 hc         1 UQ7       0.041867
    112 H411        -7.9120    25.7050     1.4140 hc         1 UQ7       0.041867
    113 H412        -8.4120    26.9130     2.6060 hc         1 UQ7       0.041867
    114 H413        -8.7580    25.2010     2.8840 hc         1 UQ7       0.041867
@<TRIPOS>BOND
     1     1     2 1
     2     1     6 1
     3     1    20 2
     4     2     3 2
     5     2    21 1
     6     3     4 1
     7     3    22 1
     8     4     5 1
     9     4    23 2
    10     5     6 2
    11     5     9 1
    12     6    10 1
    13     7    21 1
    14     7    49 1
    15     7    50 1
    16     7    51 1
    17     8    22 1
    18     8    52 1
    19     8    53 1
    20     8    54 1
    21     9    55 1
    22     9    56 1
    23     9    57 1
    24    10    11 1
    25    10    58 1
    26    10    59 1
    27    11    12 2
    28    11    60 1
    29    12    13 1
    30    12    14 1
    31    13    61 1
    32    13    62 1
    33    13    63 1
    34    14    15 1
    35    14    64 1
    36    14    65 1
    37    15    16 1
    38    15    66 1
    39    15    67 1
    40    16    17 2
    41    16    68 1
    42    17    18 1
    43    17    19 1
    44    18    69 1
    45    18    70 1
    46    18    71 1
    47    19    24 1
    48    19    72 1
    49    19    73 1
    50    24    25 1
    51    24    74 1
    52    24    75 1
    53    25    26 2
    54    25    76 1
    55    26    27 1
    56    26    28 1
    57    27    77 1
    58    27    78 1
    59    27    79 1
    60    28    29 1
    61    28    80 1
    62    28    81 1
    63    29    30 1
    64    29    82 1
    65    29    83 1
    66    30    31 2
    67    30    84 1
    68    31    32 1
    69    31    33 1
    70    32    85 1
    71    32    86 1
    72    32    87 1
    73    33    34 1
    74    33    88 1
    75    33    89 1
    76    34    35 1
    77    34    90 1
    78    34    91 1
    79    35    36 2
    80    35    92 1
    81    36    37 1
    82    36    38 1
    83    37    93 1
    84    37    94 1
    85    37    95 1
    86    38    39 1
    87    38    96 1
    88    38    97 1
    89    39    40 1
    90    39    98 1
    91    39    99 1
    92    40    41 2
    93    40   100 1
    94    41    42 1
    95    41    43 1
    96    42   101 1
    97    42   102 1
    98    42   103 1
    99    43    44 1
   100    43   104 1
   101    43   105 1
   102    44    45 1
   103    44   106 1
   104    44   107 1
   105    45    46 2
   106    45   108 1
   107    46    47 1
   108    46    48 1
   109    47   109 1
   110    47   110 1
   111    47   111 1
   112    48   112 1
   113    48   113 1
   114    48   114 1
@<TRIPOS>SUBSTRUCTURE
     1 UQ7         1 TEMP              0 ****  ****    0 ROOT
