@<TRIPOS>MOLECULE
UQ7
  114   114     1     0     0
SMALL
bcc


@<TRIPOS>ATOM
      1 C1          0.8000   -0.4190    0.6080 c         1 UQ7      0.557500
      2 C2          0.5360   -0.9700    1.9620 cc        1 UQ7      0.023900
      3 C3         -0.5890   -1.6940    2.2190 cd        1 UQ7     -0.015100
      4 C4         -1.6620   -1.8540    1.2130 c         1 UQ7      0.552500
      5 C5         -1.4800   -1.1180   -0.0660 cc        1 UQ7     -0.123400
      6 C6         -0.3440   -0.4410   -0.3380 cd        1 UQ7     -0.133400
      7 CM2         2.7930   -0.7580    2.7110 c3        1 UQ7      0.115700
      8 CM3        -1.7820   -1.9510    4.2450 c3        1 UQ7      0.109700
      9 CM5        -2.6130   -1.1820   -1.0200 c3        1 UQ7     -0.070900
     10 C7         -0.1410    0.3140   -1.6120 c3        1 UQ7     -0.012000
     11 C8         -0.6610    1.7010   -1.5120 c2        1 UQ7     -0.190200
     12 C9          0.0880    2.8120   -1.5840 c2        1 UQ7     -0.089400
     13 C10         1.5620    2.7920   -1.7480 c3        1 UQ7     -0.073900
     14 C11        -0.5450    4.1630   -1.5190 c3        1 UQ7     -0.045200
     15 C12        -0.3340    4.8130   -0.1630 c3        1 UQ7     -0.043200
     16 C13        -0.9340    6.1660   -0.0990 c2        1 UQ7     -0.176200
     17 C14        -1.0300    6.8790    1.0350 c2        1 UQ7     -0.120400
     18 C15        -0.5440    6.3590    2.3360 c3        1 UQ7     -0.059900
     19 C16        -1.6250    8.2450    1.0450 c3        1 UQ7     -0.039200
     20 O1          1.9090    0.0230    0.2880 o         1 UQ7     -0.508100
     21 O2          1.3940   -0.7220    3.0060 os        1 UQ7     -0.305900
     22 O3         -0.6990   -2.3760    3.4130 os        1 UQ7     -0.307900
     23 O4         -2.6580   -2.5550    1.4280 o         1 UQ7     -0.496100
     24 C17        -2.9490    8.2730    1.7880 c3        1 UQ7     -0.043200
     25 C18        -3.5200    9.6380    1.8530 c2        1 UQ7     -0.174200
     26 C19        -4.7540    9.9030    2.3130 c2        1 UQ7     -0.123400
     27 C20        -5.6620    8.8330    2.7920 c3        1 UQ7     -0.058900
     28 C21        -5.2770   11.2970    2.3760 c3        1 UQ7     -0.039200
     29 C22        -6.4020   11.5190    1.3810 c3        1 UQ7     -0.043200
     30 C23        -6.9680   12.8840    1.4770 c2        1 UQ7     -0.174200
     31 C24        -7.8620   13.3780    0.6060 c2        1 UQ7     -0.123400
     32 C25        -8.3570   12.5880   -0.5470 c3        1 UQ7     -0.058900
     33 C26        -8.4160   14.7530    0.7570 c3        1 UQ7     -0.038200
     34 C27        -7.9350   15.6760   -0.3480 c3        1 UQ7     -0.044200
     35 C28        -8.5250   17.0300   -0.2370 c2        1 UQ7     -0.174200
     36 C29        -8.1410   18.0690   -0.9970 c2        1 UQ7     -0.123400
     37 C30        -7.0720   17.9460   -2.0180 c3        1 UQ7     -0.058900
     38 C31        -8.7790   19.4090   -0.8600 c3        1 UQ7     -0.038200
     39 C32        -7.8180   20.4300   -0.2780 c3        1 UQ7     -0.043200
     40 C33        -8.4260   21.7770   -0.1890 c2        1 UQ7     -0.174200
     41 C34        -7.8380   22.8150    0.4290 c2        1 UQ7     -0.123400
     42 C35        -6.5170   22.6920    1.0890 c3        1 UQ7     -0.058900
     43 C36        -8.4840   24.1570    0.4760 c3        1 UQ7     -0.038200
     44 C37        -8.9190   24.5200    1.8840 c3        1 UQ7     -0.043200
     45 C38        -9.5110   25.8760    1.9510 c2        1 UQ7     -0.177200
     46 C39       -10.0850   26.3790    3.0560 c2        1 UQ7     -0.124400
     47 C40       -10.6630   27.7430    3.0860 c3        1 UQ7     -0.057900
     48 C41       -10.1830   25.6040    4.3170 c3        1 UQ7     -0.057900
     49 HM21        3.1050    0.2210    2.2720 h1        1 UQ7      0.053033
     50 HM22        3.2610   -0.9160    3.7160 h1        1 UQ7      0.053033
     51 HM23        3.0420   -1.5940    2.0170 h1        1 UQ7      0.053033
     52 HM31       -1.6450   -0.8830    4.5400 h1        1 UQ7      0.049033
     53 HM32       -1.6990   -2.6230    5.1350 h1        1 UQ7      0.049033
     54 HM33       -2.7590   -2.0980    3.7250 h1        1 UQ7      0.049033
     55 HM51       -2.9080   -0.1540   -1.3480 hc        1 UQ7      0.062700
     56 HM52       -2.3140   -1.7680   -1.9270 hc        1 UQ7      0.062700
     57 HM53       -3.5020   -1.6800   -0.5590 hc        1 UQ7      0.062700
     58 H71         0.9540    0.3130   -1.8700 hc        1 UQ7      0.069200
     59 H72        -0.6790   -0.2130   -2.4500 hc        1 UQ7      0.069200
     60 H8         -1.7540    1.7750   -1.3810 ha        1 UQ7      0.121000
     61 H101        2.0010    3.8050   -1.5720 hc        1 UQ7      0.050367
     62 H102        2.0330    2.0740   -1.0290 hc        1 UQ7      0.050367
     63 H103        1.8280    2.4720   -2.7870 hc        1 UQ7      0.050367
     64 H111       -1.6470    4.0890   -1.7240 hc        1 UQ7      0.048200
     65 H112       -0.1010    4.8140   -2.3200 hc        1 UQ7      0.048200
     66 H121        0.7680    4.8830    0.0530 hc        1 UQ7      0.052200
     67 H122       -0.7800    4.1620    0.6380 hc        1 UQ7      0.052200
     68 H13        -1.3050    6.5770   -1.0520 ha        1 UQ7      0.123000
     69 H151        0.4910    5.9460    2.2320 hc        1 UQ7      0.042033
     70 H152       -0.5290    7.1600    3.1150 hc        1 UQ7      0.042033
     71 H153       -1.2100    5.5330    2.6930 hc        1 UQ7      0.042033
     72 H161       -1.7840    8.6110   -0.0040 hc        1 UQ7      0.046200
     73 H162       -0.9050    8.9530    1.5370 hc        1 UQ7      0.046200
     74 H171       -2.8000    7.8810    2.8330 hc        1 UQ7      0.050200
     75 H172       -3.6770    7.5800    1.2840 hc        1 UQ7      0.050200
     76 H18        -2.8670   10.4540    1.5010 ha        1 UQ7      0.123000
     77 H201       -6.0180    8.2150    1.9280 hc        1 UQ7      0.041367
     78 H202       -6.5550    9.2590    3.3110 hc        1 UQ7      0.041367
     79 H203       -5.1280    8.1550    3.5030 hc        1 UQ7      0.041367
     80 H211       -4.4540   12.0340    2.1710 hc        1 UQ7      0.046200
     81 H212       -5.6520   11.4990    3.4160 hc        1 UQ7      0.046200
     82 H221       -6.0220   11.3380    0.3380 hc        1 UQ7      0.050200
     83 H222       -7.2160   10.7630    1.5630 hc        1 UQ7      0.050200
     84 H23        -6.6150   13.4950    2.3240 ha        1 UQ7      0.123000
     85 H251       -9.2270   13.0870   -1.0400 hc        1 UQ7      0.041367
     86 H252       -8.6750   11.5670   -0.2160 hc        1 UQ7      0.041367
     87 H253       -7.5440   12.4650   -1.3070 hc        1 UQ7      0.041367
     88 H261       -8.1250   15.1860    1.7510 hc        1 UQ7      0.046200
     89 H262       -9.5390   14.6980    0.7360 hc        1 UQ7      0.046200
     90 H271       -8.2010   15.2320   -1.3480 hc        1 UQ7      0.050200
     91 H272       -6.8130   15.7470   -0.3160 hc        1 UQ7      0.050200
     92 H28        -9.3210   17.1510    0.5160 ha        1 UQ7      0.123000
     93 H301       -7.0280   18.8500   -2.6720 hc        1 UQ7      0.041367
     94 H302       -6.0770   17.8220   -1.5200 hc        1 UQ7      0.041367
     95 H303       -7.2490   17.0490   -2.6630 hc        1 UQ7      0.041367
     96 H311       -9.1240   19.7540   -1.8720 hc        1 UQ7      0.045700
     97 H312       -9.6890   19.3440   -0.2050 hc        1 UQ7      0.045700
     98 H321       -6.8930   20.4790   -0.9170 hc        1 UQ7      0.050200
     99 H322       -7.4870   20.0940    0.7430 hc        1 UQ7      0.050200
    100 H33        -9.4110   21.8970   -0.6690 ha        1 UQ7      0.123000
    101 H351       -5.7830   22.1910    0.4090 hc        1 UQ7      0.041367
    102 H352       -6.1090   23.6930    1.3740 hc        1 UQ7      0.041367
    103 H353       -6.6060   22.0710    2.0170 hc        1 UQ7      0.041367
    104 H361       -9.3760   24.1870   -0.2050 hc        1 UQ7      0.045700
    105 H362       -7.7550   24.9260    0.1010 hc        1 UQ7      0.045700
    106 H371       -8.0340   24.4640    2.5760 hc        1 UQ7      0.049700
    107 H372       -9.6650   23.7630    2.2530 hc        1 UQ7      0.049700
    108 H38        -9.4570   26.4750    1.0270 ha        1 UQ7      0.122000
    109 H401      -11.7440   27.6960    3.3700 hc        1 UQ7      0.040533
    110 H402      -10.5810   28.2490    2.0930 hc        1 UQ7      0.040533
    111 H403      -10.1310   28.3690    3.8460 hc        1 UQ7      0.040533
    112 H411      -10.8760   24.7350    4.1830 hc        1 UQ7      0.040533
    113 H412      -10.5680   26.2360    5.1540 hc        1 UQ7      0.040533
    114 H413       -9.1800   25.2020    4.6080 hc        1 UQ7      0.040533
@<TRIPOS>BOND
     1    1    2 1   
     2    1    6 1   
     3    1   20 2   
     4    2    3 2   
     5    2   21 1   
     6    3    4 1   
     7    3   22 1   
     8    4    5 1   
     9    4   23 2   
    10    5    6 2   
    11    5    9 1   
    12    6   10 1   
    13    7   21 1   
    14    7   49 1   
    15    7   50 1   
    16    7   51 1   
    17    8   22 1   
    18    8   52 1   
    19    8   53 1   
    20    8   54 1   
    21    9   55 1   
    22    9   56 1   
    23    9   57 1   
    24   10   11 1   
    25   10   58 1   
    26   10   59 1   
    27   11   12 2   
    28   11   60 1   
    29   12   13 1   
    30   12   14 1   
    31   13   61 1   
    32   13   62 1   
    33   13   63 1   
    34   14   15 1   
    35   14   64 1   
    36   14   65 1   
    37   15   16 1   
    38   15   66 1   
    39   15   67 1   
    40   16   17 2   
    41   16   68 1   
    42   17   18 1   
    43   17   19 1   
    44   18   69 1   
    45   18   70 1   
    46   18   71 1   
    47   19   24 1   
    48   19   72 1   
    49   19   73 1   
    50   24   25 1   
    51   24   74 1   
    52   24   75 1   
    53   25   26 2   
    54   25   76 1   
    55   26   27 1   
    56   26   28 1   
    57   27   77 1   
    58   27   78 1   
    59   27   79 1   
    60   28   29 1   
    61   28   80 1   
    62   28   81 1   
    63   29   30 1   
    64   29   82 1   
    65   29   83 1   
    66   30   31 2   
    67   30   84 1   
    68   31   32 1   
    69   31   33 1   
    70   32   85 1   
    71   32   86 1   
    72   32   87 1   
    73   33   34 1   
    74   33   88 1   
    75   33   89 1   
    76   34   35 1   
    77   34   90 1   
    78   34   91 1   
    79   35   36 2   
    80   35   92 1   
    81   36   37 1   
    82   36   38 1   
    83   37   93 1   
    84   37   94 1   
    85   37   95 1   
    86   38   39 1   
    87   38   96 1   
    88   38   97 1   
    89   39   40 1   
    90   39   98 1   
    91   39   99 1   
    92   40   41 2   
    93   40  100 1   
    94   41   42 1   
    95   41   43 1   
    96   42  101 1   
    97   42  102 1   
    98   42  103 1   
    99   43   44 1   
   100   43  104 1   
   101   43  105 1   
   102   44   45 1   
   103   44  106 1   
   104   44  107 1   
   105   45   46 2   
   106   45  108 1   
   107   46   47 1   
   108   46   48 1   
   109   47  109 1   
   110   47  110 1   
   111   47  111 1   
   112   48  112 1   
   113   48  113 1   
   114   48  114 1   
@<TRIPOS>SUBSTRUCTURE
     1 UQ7         1 TEMP              0 ****  ****    0 ROOT
