@<TRIPOS>MOLECULE
UR2
   73    74     1     0     0
SMALL
bcc


@<TRIPOS>ATOM
      1 C1           0.0000     0.0000     0.0000 ca         1 UR2       0.279100
      2 C10          4.3970     2.4770     4.9140 c          1 UR2       0.948600
      3 C13          1.4840     2.0150     4.9010 c          1 UR2       0.623100
      4 C16          0.7320     3.9750     6.1360 c3         1 UR2      -0.042300
      5 C17          1.0730     3.7330     7.6080 c3         1 UR2      -0.027400
      6 C18          0.9030     2.2490     7.9350 c3         1 UR2      -0.144400
      7 C19          1.2380     2.0110     9.3840 c          1 UR2       1.000600
      8 C2           1.3880     0.0000     0.0000 ca         1 UR2      -0.172500
      9 C22          0.7730     5.4520     5.8470 c          1 UR2       0.594100
     10 C25         -1.3170     5.6960     7.0760 c3         1 UR2       0.067300
     11 C26         -0.2580     7.6600     5.8690 c3         1 UR2       0.065000
     12 C27          0.4750     8.4870     6.9290 c3         1 UR2      -0.068400
     13 C28          0.4540     9.9630     6.5290 c3         1 UR2      -0.021400
     14 C29          1.1860    10.7880     7.5890 c3         1 UR2      -0.049700
     15 C3           2.0760     0.0000     1.1970 ca         1 UR2      -0.088500
     16 C30          1.1650    12.2650     7.1890 c3         1 UR2      -0.029400
     17 C31          1.8990    13.0900     8.2480 c3         1 UR2      -0.023900
     18 C32          1.2020    12.9180     9.6000 c3         1 UR2      -0.025400
     19 C33          1.2240    11.4420     9.9990 c3         1 UR2      -0.023900
     20 C34          0.4920    10.6170     8.9400 c3         1 UR2      -0.029400
     21 C4           1.3840    -0.0000     2.3940 ca         1 UR2      -0.213300
     22 C5           0.0020    -0.0060     2.3960 ca         1 UR2      -0.088500
     23 C6          -0.6910    -0.0010     1.2020 ca         1 UR2      -0.172500
     24 C7           2.1380    -0.0020     3.6990 c3         1 UR2       0.137300
     25 C9           3.6020     2.0710     3.6990 c3         1 UR2      -0.075000
     26 N15          1.7080     3.2850     5.2900 ns         1 UR2      -0.199900
     27 N24         -0.2380     6.2470     6.2530 n          1 UR2      -0.185800
     28 N8           2.3820     1.3800     4.1220 n          1 UR2      -0.124800
     29 O11          5.5610     3.1280     4.7680 o          1 UR2      -0.895300
     30 O12          3.9850     2.2160     6.0190 o          1 UR2      -0.895300
     31 O14          0.4710     1.4410     5.2520 o          1 UR2      -0.763100
     32 O1P         -1.6950    -2.2150    -0.5220 o          1 UR2      -0.754833
     33 O20          1.5780     2.9350    10.0850 o          1 UR2      -0.941300
     34 O21          1.1590     0.7740     9.8970 o          1 UR2      -0.941300
     35 O23          1.7150     5.9280     5.2510 o          1 UR2      -0.650100
     36 O2P         -1.7160    -1.6150    -2.9740 o          1 UR2      -0.754833
     37 O3P          0.5120    -2.2730    -1.7440 o          1 UR2      -0.754833
     38 O4P         -0.6790     0.0000    -1.1780 os         1 UR2      -0.366500
     39 P           -0.9110    -1.5400    -1.5810 p5         1 UR2       0.657900
     40 H16         -0.2600     3.5940     5.9280 h1         1 UR2       0.054700
     41 H171         2.0980     4.0290     7.7950 hc         1 UR2       0.019200
     42 H172         0.4090     4.3190     8.2330 hc         1 UR2       0.019200
     43 H181        -0.1230     1.9530     7.7480 hc         1 UR2       0.045200
     44 H182         1.5670     1.6630     7.3100 hc         1 UR2       0.045200
     45 H2           1.9300     0.0000    -0.9380 ha         1 UR2       0.106500
     46 H251        -1.6460     4.7530     6.6560 h1         1 UR2       0.013033
     47 H252        -2.1470     6.3910     7.0970 h1         1 UR2       0.013033
     48 H253        -0.9550     5.5350     8.0850 h1         1 UR2       0.013033
     49 H261        -1.2840     7.9990     5.7930 h1         1 UR2       0.015700
     50 H262         0.2340     7.7820     4.9120 h1         1 UR2       0.015700
     51 H271        -0.0180     8.3650     7.8860 hc         1 UR2       0.035200
     52 H272         1.5010     8.1470     7.0050 hc         1 UR2       0.035200
     53 H281        -0.5720    10.3020     6.4530 hc         1 UR2       0.009200
     54 H282         0.9470    10.0850     5.5720 hc         1 UR2       0.009200
     55 H29          2.2130    10.4520     7.6680 hc         1 UR2       0.041700
     56 H3           3.1590     0.0020     1.1980 ha         1 UR2       0.084500
     57 H301         1.6600    12.3860     6.2320 hc         1 UR2       0.017950
     58 H302         0.1390    12.6040     7.1160 hc         1 UR2       0.017950
     59 H311         1.8820    14.1360     7.9640 hc         1 UR2       0.008700
     60 H312         2.9230    12.7480     8.3250 hc         1 UR2       0.008700
     61 H321         0.1750    13.2550     9.5210 hc         1 UR2       0.000700
     62 H322         1.7220    13.5020    10.3490 hc         1 UR2       0.000700
     63 H331         0.7290    11.3200    10.9550 hc         1 UR2       0.008700
     64 H332         2.2500    11.1040    10.0730 hc         1 UR2       0.008700
     65 H341        -0.5340    10.9580     8.8630 hc         1 UR2       0.017950
     66 H342         0.5090     9.5710     9.2230 hc         1 UR2       0.017950
     67 H5          -0.5380    -0.0070     3.3350 ha         1 UR2       0.084500
     68 H6          -1.7740    -0.0030     1.2040 ha         1 UR2       0.106500
     69 H71          3.0850    -0.5120     3.5690 h1         1 UR2       0.016200
     70 H72          1.5530    -0.5130     4.4540 h1         1 UR2       0.016200
     71 H91          4.1970     1.4080     3.0830 h1         1 UR2       0.014200
     72 H92          3.3380     2.9540     3.1290 h1         1 UR2       0.014200
     73 HN5          2.5240     3.7690     4.9730 hn         1 UR2       0.217500
@<TRIPOS>BOND
     1     1     8 ar  
     2     1    23 ar  
     3     1    38 1   
     4     2    25 1   
     5     2    29 1   
     6     2    30 1   
     7     3    26 1   
     8     3    28 1   
     9     3    31 2   
    10     4     5 1   
    11     4     9 1   
    12     4    26 1   
    13     4    40 1   
    14     5     6 1   
    15     5    41 1   
    16     5    42 1   
    17     6     7 1   
    18     6    43 1   
    19     6    44 1   
    20     7    33 1   
    21     7    34 1   
    22     8    15 ar  
    23     8    45 1   
    24     9    27 1   
    25     9    35 2   
    26    10    27 1   
    27    10    46 1   
    28    10    47 1   
    29    10    48 1   
    30    11    12 1   
    31    11    27 1   
    32    11    49 1   
    33    11    50 1   
    34    12    13 1   
    35    12    51 1   
    36    12    52 1   
    37    13    14 1   
    38    13    53 1   
    39    13    54 1   
    40    14    16 1   
    41    14    20 1   
    42    14    55 1   
    43    15    21 ar  
    44    15    56 1   
    45    16    17 1   
    46    16    57 1   
    47    16    58 1   
    48    17    18 1   
    49    17    59 1   
    50    17    60 1   
    51    18    19 1   
    52    18    61 1   
    53    18    62 1   
    54    19    20 1   
    55    19    63 1   
    56    19    64 1   
    57    20    65 1   
    58    20    66 1   
    59    21    22 ar  
    60    21    24 1   
    61    22    23 ar  
    62    22    67 1   
    63    23    68 1   
    64    24    28 1   
    65    24    69 1   
    66    24    70 1   
    67    25    28 1   
    68    25    71 1   
    69    25    72 1   
    70    26    73 1   
    71    32    39 1   
    72    36    39 1   
    73    37    39 1   
    74    38    39 1   
@<TRIPOS>SUBSTRUCTURE
     1 UR2         1 TEMP              0 ****  ****    0 ROOT
