@<TRIPOS>MOLECULE
molecule
   12    12     1     0     0
SMALL
bcc


@<TRIPOS>ATOM
      1 N1           0.0000     0.0000     0.0000 ns         1 URA      -0.456100
      2 C2           1.3440     0.0000     0.0000 c          1 URA       0.806500
      3 O2           1.9430    -0.0050    -1.0580 o          1 URA      -0.651500
      4 N3           2.0370     0.0000     1.1540 ns         1 URA      -0.560500
      5 C4           1.3860     0.0090     2.3350 c          1 URA       0.703700
      6 O4           2.0120     0.0130     3.3800 o          1 URA      -0.615500
      7 C5          -0.0280     0.0090     2.3490 cc         1 URA      -0.322200
      8 C6          -0.6970     0.0050     1.1780 cd         1 URA       0.030600
      9 HN1         -0.4960    -0.0030    -0.8690 hn         1 URA       0.358500
     10 HN3          3.0370    -0.0000     1.1350 hn         1 URA       0.365500
     11 H5          -0.5670     0.0150     3.2890 ha         1 URA       0.179000
     12 H6          -1.7810     0.0050     1.1690 h4         1 URA       0.163000
@<TRIPOS>BOND
     1     1     2 1
     2     1     8 1
     3     1     9 1
     4     2     3 2
     5     2     4 1
     6     4     5 1
     7     4    10 1
     8     5     6 2
     9     5     7 1
    10     7     8 2
    11     7    11 1
    12     8    12 1
@<TRIPOS>SUBSTRUCTURE
     1 URA         1 TEMP              0 ****  ****    0 ROOT
