@<TRIPOS>MOLECULE
molecule
   12    12     1     0     0
SMALL
bcc


@<TRIPOS>ATOM
      1 O4           0.0000     0.0000     0.0000 o          1 URB      -0.592500
      2 C4           1.2170     0.0000     0.0000 c          1 URB       0.711700
      3 C5           1.9330     0.0000     1.2230 cc         1 URB      -0.238500
      4 Br           1.0090    -0.0030     2.8730 br         1 URB      -0.010700
      5 C6           3.2830     0.0000     1.1930 cd         1 URB       0.063600
      6 N1           3.9350     0.0010    -0.0110 ns         1 URB      -0.450100
      7 C2           3.2430     0.0020    -1.1650 c          1 URB       0.805500
      8 O2           3.8420     0.0030    -2.2230 o          1 URB      -0.641500
      9 N3           1.8970    -0.0040    -1.1640 ns         1 URB      -0.556500
     10 H6           3.8480    -0.0000     2.1180 h4         1 URB       0.176000
     11 HN1          4.9350     0.0010    -0.0330 hn         1 URB       0.363500
     12 HN3          1.3990    -0.0030    -2.0320 hn         1 URB       0.370500
@<TRIPOS>BOND
     1     1     2 2
     2     2     3 1
     3     2     9 1
     4     3     4 1
     5     3     5 2
     6     5     6 1
     7     6     7 1
     8     7     8 2
     9     7     9 1
    10     5    10 1
    11     6    11 1
    12     9    12 1
@<TRIPOS>SUBSTRUCTURE
     1 URB         1 TEMP              0 ****  ****    0 ROOT
