@<TRIPOS>MOLECULE
URB
   12    12     1     0     0
SMALL
bcc


@<TRIPOS>ATOM
      1 O4           0.0000     0.0000     0.0000 o          1 URB      -0.634500
      2 C4           1.2170     0.0000     0.0000 c          1 URB       0.619700
      3 C5           1.9330     0.0000     1.2230 cc         1 URB      -0.200500
      4 Br           1.0090    -0.0030     2.8730 br         1 URB      -0.022700
      5 C6           3.2830     0.0000     1.1930 cd         1 URB      -0.084400
      6 N1           3.9350     0.0010    -0.0110 ns         1 URB       0.020900
      7 C2           3.2430     0.0020    -1.1650 c          1 URB       0.571500
      8 O2           3.8420     0.0030    -2.2230 o          1 URB      -0.693500
      9 N3           1.8970    -0.0040    -1.1640 ns         1 URB      -0.121500
     10 H6           3.8480    -0.0000     2.1180 h4         1 URB       0.140000
     11 HN1          4.9350     0.0010    -0.0330 hn         1 URB       0.193500
     12 HN3          1.3990    -0.0030    -2.0320 hn         1 URB       0.210500
@<TRIPOS>BOND
     1     1     2 2   
     2     2     3 1   
     3     2     9 1   
     4     3     4 1   
     5     3     5 2   
     6     5     6 1   
     7     5    10 1   
     8     6     7 1   
     9     6    11 1   
    10     7     8 2   
    11     7     9 1   
    12     9    12 1   
@<TRIPOS>SUBSTRUCTURE
     1 URB         1 TEMP              0 ****  ****    0 ROOT
