@<TRIPOS>MOLECULE
URE
   10     9     1     0     0
SMALL
bcc


@<TRIPOS>ATOM
      1 C            0.0000     0.0000     0.0000 c          1 URE       0.070100
      2 O            1.2150     0.0000     0.0000 o          1 URE      -0.208100
      3 N1          -0.6730     0.0000     1.1670 nz         1 URE       0.216100
      4 N2          -0.6730     0.0000    -1.1670 nz         1 URE       0.216100
      5 HN11        -0.0220     0.0000     1.9270 hn         1 URE       0.284633
      6 HN12        -1.2480    -0.8170     1.2210 hn         1 URE       0.284633
      7 HN21        -1.2480     0.8170    -1.2210 hn         1 URE       0.284633
      8 HN22        -0.0220     0.0000    -1.9270 hn         1 URE       0.284633
      9 H13         -1.2480     0.8170     1.2210 hn         1 URE       0.284633
     10 H23         -1.2750    -0.7980    -1.2050 hn         1 URE       0.284633
@<TRIPOS>BOND
     1     1     2 2   
     2     1     3 1   
     3     1     4 1   
     4     3     5 1   
     5     3     6 1   
     6     3     9 1   
     7     4     7 1   
     8     4     8 1   
     9     4    10 1   
@<TRIPOS>SUBSTRUCTURE
     1 URE         1 TEMP              0 ****  ****    0 ROOT
