@<TRIPOS>MOLECULE
URF
   12    12     1     0     0
SMALL
bcc


@<TRIPOS>ATOM
      1 N1           0.0000     0.0000     0.0000 ns         1 URF       0.030900
      2 C2           1.3450     0.0000     0.0000 c          1 URF       0.566500
      3 N3           2.0370     0.0000     1.1540 ns         1 URF      -0.116500
      4 C4           1.3880     0.0050     2.3350 c          1 URF       0.596700
      5 C5          -0.0280     0.0010     2.3510 cc         1 URF      -0.041700
      6 C6          -0.6980     0.0000     1.1780 cd         1 URF      -0.146400
      7 O2           1.9440    -0.0010    -1.0580 o          1 URF      -0.691500
      8 O4           2.0150     0.0060     3.3800 o          1 URF      -0.629500
      9 F5          -0.6990     0.0020     3.5230 f          1 URF      -0.122500
     10 HN1         -0.4960    -0.0000    -0.8690 hn         1 URF       0.194500
     11 HN3          3.0380     0.0010     1.1350 hn         1 URF       0.213500
     12 H6          -1.7810    -0.0020     1.1700 h4         1 URF       0.145000
@<TRIPOS>BOND
     1     1     2 1   
     2     1     6 1   
     3     1    10 1   
     4     2     3 1   
     5     2     7 2   
     6     3     4 1   
     7     3    11 1   
     8     4     5 1   
     9     4     8 2   
    10     5     6 2   
    11     5     9 1   
    12     6    12 1   
@<TRIPOS>SUBSTRUCTURE
     1 URF         1 TEMP              0 ****  ****    0 ROOT
