@<TRIPOS>MOLECULE
URG
   82    82     1     0     0
SMALL
bcc


@<TRIPOS>ATOM
      1 CAA         3.0050    3.0840    7.8140 c3        1 URG      0.101300
      2 NAY         3.8020    2.8000    6.6650 n         1 URG     -0.549900
      3 CBI         3.3040    1.9420    5.6930 c         1 URG      0.756100
      4 OAI         2.0960    1.5690    5.7080 o         1 URG     -0.712100
      5 NBA         4.1680    1.5890    4.6230 n         1 URG     -0.510400
      6 CBG         3.9620    0.3830    3.8860 c2        1 URG      0.646800
      7 NAE         2.8110   -0.1580    3.5750 n2        1 URG     -0.912100
      8 NAZ         5.1710   -0.2050    3.3360 nh        1 URG     -0.787200
      9 CAU         6.1960   -0.5040    4.3190 c3        1 URG      0.132800
     10 CAT         7.4040   -1.2310    3.7210 c3        1 URG     -0.073400
     11 CAV         8.4440   -1.3780    4.8090 c3        1 URG     -0.097400
     12 CBP         9.8170   -1.8100    4.2600 c3        1 URG      0.020700
     13 NBC         9.9020   -3.2370    4.0320 n         1 URG     -0.526900
     14 C          10.3180   -3.7740    2.8410 c         1 URG      0.639100
     15 O          10.4940   -3.0910    1.8080 o         1 URG     -0.633100
     16 CA         10.4760   -5.3210    2.8010 c3        1 URG      0.028700
     17 CB          9.0710   -5.9230    2.7330 c3        1 URG     -0.101100
     18 N          11.3130   -5.7200    1.6930 n         1 URG     -0.553900
     19 CBE        12.3570   -6.6120    1.8400 c         1 URG      0.655100
     20 CAB        13.2980   -6.7630    0.6670 c3        1 URG     -0.174100
     21 OAF        12.4980   -7.2980    2.8740 o         1 URG     -0.619100
     22 CBL        10.8490   -1.3440    5.3280 c         1 URG      0.642100
     23 OAL        11.2540   -2.1580    6.1860 o         1 URG     -0.633100
     24 NBR        11.2720   -0.0260    5.3030 n         1 URG     -0.446800
     25 CAD        10.9910    0.8040    4.1610 c3        1 URG      0.039300
     26 CBQ        11.6690    0.6030    6.5570 c3        1 URG      0.029700
     27 CBK        10.4820    1.2480    7.3400 c         1 URG      0.627100
     28 OAK        10.4150    1.0190    8.5670 o         1 URG     -0.631100
     29 NBD         9.5350    1.9540    6.6390 n         1 URG     -0.494900
     30 CBO         8.7240    2.9870    7.2640 c3        1 URG      0.003700
     31 CBH         7.2050    2.7730    7.0440 c         1 URG      0.919600
     32 OAN         6.4140    3.1680    7.9540 o         1 URG     -0.877300
     33 OAH         6.7430    2.2600    5.9760 o         1 URG     -0.877300
     34 CAW         9.0690    4.3940    6.7340 c3        1 URG     -0.195400
     35 CBF        10.5310    4.5680    6.3290 c         1 URG      0.900600
     36 OAM        10.9430    4.0210    5.2520 o         1 URG     -0.874800
     37 OAG        11.3090    5.2530    7.0570 o         1 URG     -0.874800
     38 CAX        12.7670    1.6670    6.3690 c3        1 URG     -0.078100
     39 CBM        13.5540    1.8950    7.6100 ca        1 URG     -0.061300
     40 CAR        14.4060    0.9050    8.1120 ca        1 URG     -0.115500
     41 CAP        15.1800    1.1500    9.2450 ca        1 URG     -0.147500
     42 CAO        15.1070    2.3860    9.8860 ca        1 URG     -0.153000
     43 CAQ        14.2550    3.3740    9.3930 ca        1 URG     -0.147500
     44 CAS        13.4780    3.1370    8.2590 ca        1 URG     -0.115500
     45 HAA         2.5700    2.1510    8.2660 h1        1 URG      0.027033
     46 HAAA        2.1480    3.7540    7.5320 h1        1 URG      0.027033
     47 HAAB        3.6550    3.5970    8.5720 h1        1 URG      0.027033
     48 HNAY        4.8070    2.9080    6.7690 hn        1 URG      0.396500
     49 HNBA        5.1210    1.9150    4.7040 hn        1 URG      0.370500
     50 HNAE        2.0020    0.3180    3.9120 hn        1 URG      0.420400
     51 HNAZ        4.9520   -1.0130    2.7820 hn        1 URG      0.377800
     52 HAU         6.5690    0.4670    4.7740 h1        1 URG      0.077200
     53 HAUA        5.7900   -1.1370    5.1620 h1        1 URG      0.077200
     54 HAT         7.1090   -2.2350    3.3220 hc        1 URG      0.037700
     55 HATA        7.8230   -0.6360    2.8680 hc        1 URG      0.037700
     56 HAV         8.5630   -0.3850    5.3300 hc        1 URG      0.080700
     57 HAVA        8.0900   -2.1070    5.5850 hc        1 URG      0.080700
     58 HBP        10.0080   -1.2960    3.2710 h1        1 URG      0.104700
     59 HNBC        9.9550   -3.7950    4.8560 hn        1 URG      0.323500
     60 HA         10.9710   -5.6760    3.7570 h1        1 URG      0.093700
     61 HB          9.1280   -7.0370    2.6930 hc        1 URG      0.048033
     62 HBA         8.5000   -5.6260    3.6450 hc        1 URG      0.048033
     63 HBB         8.5230   -5.5570    1.8320 hc        1 URG      0.048033
     64 HN         11.3110   -5.1040    0.9090 hn        1 URG      0.326500
     65 HAB        12.7380   -7.0480   -0.2550 hc        1 URG      0.061700
     66 HABA       13.8390   -5.8040    0.4830 hc        1 URG      0.061700
     67 HABB       14.0410   -7.5610    0.9050 hc        1 URG      0.061700
     68 HAD        11.3330    1.8640    4.3420 h1        1 URG      0.062033
     69 HADA       11.5380    0.3980    3.2670 h1        1 URG      0.062033
     70 HADB        9.8900    0.8320    3.9270 h1        1 URG      0.062033
     71 HBQ        12.0700   -0.2170    7.2290 h1        1 URG      0.096700
     72 HNBD        9.7620    2.1980    5.6930 hn        1 URG      0.320500
     73 HBO         8.9050    2.9560    8.3790 h1        1 URG      0.075700
     74 HAW         8.8090    5.1330    7.5320 hc        1 URG      0.045700
     75 HAWA        8.4380    4.6060    5.8330 hc        1 URG      0.045700
     76 HAX        13.4730    1.3360    5.5600 hc        1 URG      0.091700
     77 HAXA       12.2970    2.6440    6.0350 hc        1 URG      0.091700
     78 HAR        14.4570   -0.0730    7.6130 ha        1 URG      0.168500
     79 HAP        15.8420    0.3660    9.6360 ha        1 URG      0.112500
     80 HAO        15.7130    2.5780   10.7810 ha        1 URG      0.101000
     81 HAQ        14.1840    4.3460    9.9010 ha        1 URG      0.112500
     82 HAS        12.7890    3.9210    7.8700 ha        1 URG      0.168500
@<TRIPOS>BOND
     1    1    2 1   
     2    1   45 1   
     3    1   46 1   
     4    1   47 1   
     5    2    3 1   
     6    2   48 1   
     7    3    4 2   
     8    3    5 1   
     9    5    6 1   
    10    5   49 1   
    11    6    7 2   
    12    6    8 1   
    13    7   50 1   
    14    8    9 1   
    15    8   51 1   
    16    9   10 1   
    17    9   52 1   
    18    9   53 1   
    19   10   11 1   
    20   10   54 1   
    21   10   55 1   
    22   11   12 1   
    23   11   56 1   
    24   11   57 1   
    25   12   13 1   
    26   12   22 1   
    27   12   58 1   
    28   13   14 1   
    29   13   59 1   
    30   14   15 2   
    31   14   16 1   
    32   16   17 1   
    33   16   18 1   
    34   16   60 1   
    35   17   61 1   
    36   17   62 1   
    37   17   63 1   
    38   18   19 1   
    39   18   64 1   
    40   19   20 1   
    41   19   21 2   
    42   20   65 1   
    43   20   66 1   
    44   20   67 1   
    45   22   23 2   
    46   22   24 1   
    47   24   25 1   
    48   24   26 1   
    49   25   68 1   
    50   25   69 1   
    51   25   70 1   
    52   26   27 1   
    53   26   38 1   
    54   26   71 1   
    55   27   28 2   
    56   27   29 1   
    57   29   30 1   
    58   29   72 1   
    59   30   31 1   
    60   30   34 1   
    61   30   73 1   
    62   31   32 1   
    63   31   33 1   
    64   34   35 1   
    65   34   74 1   
    66   34   75 1   
    67   35   36 1   
    68   35   37 1   
    69   38   39 1   
    70   38   76 1   
    71   38   77 1   
    72   39   40 ar  
    73   39   44 ar  
    74   40   41 ar  
    75   40   78 1   
    76   41   42 ar  
    77   41   79 1   
    78   42   43 ar  
    79   42   80 1   
    80   43   44 ar  
    81   43   81 1   
    82   44   82 1   
@<TRIPOS>SUBSTRUCTURE
     1 URG         1 TEMP              0 ****  ****    0 ROOT
