@<TRIPOS>MOLECULE
URI
   29    30     1     0     0
SMALL
bcc


@<TRIPOS>ATOM
      1 N1           0.0000     0.0000     0.0000 n          1 URI       0.054000
      2 C2           1.3440     0.0000     0.0000 c          1 URI       0.594500
      3 N3           2.0360     0.0000     1.1550 ns         1 URI      -0.130500
      4 C4           1.3880    -0.0100     2.3370 c          1 URI       0.614700
      5 C5          -0.0270    -0.0170     2.3510 cc         1 URI      -0.299200
      6 C6          -0.6970    -0.0110     1.1780 cd         1 URI      -0.077400
      7 O2           1.9430     0.0090    -1.0570 o          1 URI      -0.704500
      8 O4           2.0130    -0.0160     3.3810 o          1 URI      -0.656500
      9 C1'         -0.7260     0.0050    -1.2710 c3         1 URI       0.219500
     10 C2'         -0.2930     1.2080    -2.1450 c3         1 URI       0.107100
     11 C3'         -0.6320     0.7100    -3.5750 c3         1 URI       0.138100
     12 C4'         -0.6860    -0.8220    -3.4330 c3         1 URI       0.154100
     13 O2'         -1.0510     2.3750    -1.8200 oh         1 URI      -0.559800
     14 O3'         -1.8940     1.2260    -3.9980 oh         1 URI      -0.556800
     15 O4'         -0.3610    -1.1400    -2.0700 os         1 URI      -0.368600
     16 C5'          0.3310    -1.4690    -4.3750 c3         1 URI       0.218400
     17 O5'          0.2780    -2.8890    -4.2310 oh         1 URI      -0.577800
     18 H3           3.0370     0.0030     1.1360 hn         1 URI       0.206500
     19 H5          -0.5670    -0.0250     3.2900 ha         1 URI       0.151000
     20 H6          -1.7800    -0.0140     1.1690 h4         1 URI       0.136000
     21 H1'         -1.7960     0.0240    -1.1050 h2         1 URI       0.053700
     22 H2'          0.7700     1.3910    -2.0460 h1         1 URI       0.065700
     23 H3'          0.1510     0.9950    -4.2680 h1         1 URI       0.015700
     24 H4'         -1.6840    -1.1750    -3.6630 h1         1 URI       0.042700
     25 HO2'        -0.4900     3.1320    -1.8440 ho         1 URI       0.392000
     26 HO3'        -1.8020     1.6250    -4.8480 ho         1 URI       0.389000
     27 H5'1         0.0970    -1.2020    -5.3980 h1         1 URI      -0.003800
     28 H5'2         1.3260    -1.1180    -4.1290 h1         1 URI      -0.003800
     29 HO5'         0.7020    -3.2960    -4.9680 ho         1 URI       0.388000
@<TRIPOS>BOND
     1     1     2 1   
     2     1     6 1   
     3     1     9 1   
     4     2     3 1   
     5     2     7 2   
     6     3     4 1   
     7     3    18 1   
     8     4     5 1   
     9     4     8 2   
    10     5     6 2   
    11     5    19 1   
    12     6    20 1   
    13     9    10 1   
    14     9    15 1   
    15     9    21 1   
    16    10    11 1   
    17    10    13 1   
    18    10    22 1   
    19    11    12 1   
    20    11    14 1   
    21    11    23 1   
    22    12    15 1   
    23    12    16 1   
    24    12    24 1   
    25    13    25 1   
    26    14    26 1   
    27    16    17 1   
    28    16    27 1   
    29    16    28 1   
    30    17    29 1   
@<TRIPOS>SUBSTRUCTURE
     1 URI         1 TEMP              0 ****  ****    0 ROOT
