@<TRIPOS>MOLECULE
URN
   16    16     1     0     0
SMALL
bcc


@<TRIPOS>ATOM
      1 O4         -0.0700    0.0500   -0.0450 o         1 URN     -0.633500
      2 C4          1.1750    0.0450   -0.0770 c         1 URN      0.706700
      3 N3          1.8750    0.1050    1.1390 n         1 URN     -0.578500
      4 C5          1.9650   -0.0280   -1.3180 cc        1 URN     -0.219200
      5 N5          1.2950   -0.1220   -2.5630 nh        1 URN     -0.760600
      6 C6          3.3650   -0.0210   -1.2570 cd        1 URN      0.334600
      7 N6          4.1600    0.0360   -2.4000 nh        1 URN     -0.832600
      8 N1          3.9980   -0.0040   -0.0040 n         1 URN     -0.489100
      9 C2          3.2690    0.0970    1.2000 c         1 URN      0.816500
     10 O2          3.8920    0.1630    2.2810 o         1 URN     -0.639500
     11 HN3         1.3760    0.1600    2.0010 hn        1 URN      0.356500
     12 HN51        0.5890   -0.8350   -2.5070 hn        1 URN      0.364800
     13 HN52        0.8470    0.7530   -2.7700 hn        1 URN      0.364800
     14 HN61        5.0760   -0.3470   -2.3440 hn        1 URN      0.429800
     15 HN62        3.6800   -0.1420   -3.2570 hn        1 URN      0.429800
     16 HN1         4.9880    0.0790    0.0720 hn        1 URN      0.350500
@<TRIPOS>BOND
     1    1    2 2   
     2    2    3 1   
     3    2    4 1   
     4    3    9 1   
     5    3   11 1   
     6    4    5 1   
     7    4    6 2   
     8    5   12 1   
     9    5   13 1   
    10    6    7 1   
    11    6    8 1   
    12    7   14 1   
    13    7   15 1   
    14    8    9 1   
    15    8   16 1   
    16    9   10 2   
@<TRIPOS>SUBSTRUCTURE
     1 URN         1 TEMP              0 ****  ****    0 ROOT
