@<TRIPOS>MOLECULE
molecule
   15    15     1     0     0
SMALL
bcc


@<TRIPOS>ATOM
      1 OAA          0.0000     0.0000     0.0000 o          1 URO      -0.848800
      2 CAI          1.2160     0.0000     0.0000 c          1 URO       0.859800
      3 OAB          1.8910     0.0000     1.1690 o          1 URO      -0.848800
      4 CAC          1.9240     0.0010    -1.2260 ce         1 URO      -0.124200
      5 CAD          1.2490     0.0010    -2.3970 cf         1 URO      -0.274800
      6 CAJ          1.9820     0.0020    -3.6660 cd         1 URO       0.410100
      7 CAF          1.4330     0.0030    -4.9190 cc         1 URO      -0.305600
      8 NAH          2.4670     0.0040    -5.8020 na         1 URO      -0.312900
      9 CAE          3.6200     0.0030    -5.0840 cc         1 URO       0.366400
     10 NAG          3.3320     0.0070    -3.8140 nd         1 URO      -0.685000
     11 HAC          3.0070     0.0020    -1.2250 ha         1 URO       0.123000
     12 HAD          0.1660     0.0000    -2.3980 ha         1 URO       0.149000
     13 HAF          0.3770     0.0020    -5.1610 h4         1 URO       0.169000
     14 HAH          2.3920     0.0030    -6.8000 hn         1 URO       0.277700
     15 HAE          4.6200     0.0050    -5.5010 h5         1 URO       0.046100
@<TRIPOS>BOND
     1     1     2 1
     2     2     3 1
     3     2     4 1
     4     4     5 2
     5     4    11 1
     6     5     6 1
     7     5    12 1
     8     6     7 2
     9     6    10 1
    10     7     8 1
    11     7    13 1
    12     8     9 1
    13     8    14 1
    14     9    10 2
    15     9    15 1
@<TRIPOS>SUBSTRUCTURE
     1 URO         1 TEMP              0 ****  ****    0 ROOT
