@<TRIPOS>MOLECULE
URO
   15    15     1     0     0
SMALL
bcc


@<TRIPOS>ATOM
      1 OAA        -0.0840    0.4060    0.0390 o         1 URO     -0.838300
      2 CAI         1.1270    0.0450    0.1070 c         1 URO      0.886800
      3 OAB         1.7260   -0.2010    1.1940 o         1 URO     -0.838300
      4 CAC         1.9240   -0.1090   -1.1710 ce        1 URO     -0.147200
      5 CAD         1.3890    0.1220   -2.3770 cf        1 URO     -0.278800
      6 CAJ         2.0650    0.0040   -3.6460 cd        1 URO      0.412100
      7 CAF         1.4610    0.2570   -4.9020 cc        1 URO     -0.297600
      8 NAH         2.4420    0.0300   -5.8700 na        1 URO     -0.337900
      9 CAE         3.6000   -0.3490   -5.1830 cc        1 URO      0.360400
     10 NAG         3.4050   -0.3740   -3.8490 nd        1 URO     -0.664000
     11 HAC         2.9700   -0.4230   -1.0350 ha        1 URO      0.115000
     12 HAD         0.3320    0.4360   -2.4460 ha        1 URO      0.139000
     13 HAF         0.4500    0.5660   -5.1480 h4        1 URO      0.169000
     14 HAH         2.3330    0.1220   -6.8400 hn        1 URO      0.281700
     15 HAE         4.5360   -0.5900   -5.6930 h5        1 URO      0.040100
@<TRIPOS>BOND
     1    1    2 1   
     2    2    3 1   
     3    2    4 1   
     4    4    5 2   
     5    4   11 1   
     6    5    6 1   
     7    5   12 1   
     8    6    7 2   
     9    6   10 1   
    10    7    8 1   
    11    7   13 1   
    12    8    9 1   
    13    8   14 1   
    14    9   10 2   
    15    9   15 1   
@<TRIPOS>SUBSTRUCTURE
     1 URO         1 TEMP              0 ****  ****    0 ROOT
