@<TRIPOS>MOLECULE
URP
   18    15     1     0     0
SMALL
bcc


@<TRIPOS>ATOM
      1 O2          1.4480   -0.8360    0.5320 o         1 URP     -0.481100
      2 C2          1.3110    0.0190   -0.3490 c         1 URP      0.650100
      3 N3          0.6670    1.3170    0.1630 n4        1 URP     -0.747400
      4 N1          1.6460   -0.0450   -1.6580 n         1 URP     -0.618000
      5 C6          2.5360   -2.6140   -3.4760 c2        1 URP     -0.236000
      6 C5          3.4570   -2.6900   -2.5210 c2        1 URP     -0.236000
      7 C4          0.4860    3.6450   -3.0640 c1        1 URP      0.925000
      8 O42         0.3490    4.4690   -3.8940 o         1 URP     -0.460500
      9 O41         0.6260    2.8020   -2.2170 o         1 URP     -0.460500
     10 HN31       -0.2090    1.5070   -0.3330 hn        1 URP      0.473467
     11 HN32        0.4800    1.1960    1.1670 hn        1 URP      0.473467
     12 HN1         2.0680   -0.9000   -1.9900 hn        1 URP      0.376000
     13 H61         2.7000   -2.0680   -4.4160 ha        1 URP      0.123000
     14 H62         1.5710   -3.1360   -3.4120 ha        1 URP      0.123000
     15 H51         3.3130   -3.2750   -1.6010 ha        1 URP      0.123000
     16 H52         4.4420   -2.2080   -2.6060 ha        1 URP      0.123000
     17 H33         1.2950    2.1140    0.0210 hn        1 URP      0.473467
     18 H12         1.4910    0.7030   -2.2940 hn        1 URP      0.376000
@<TRIPOS>BOND
     1    1    2 2   
     2    2    3 1   
     3    2    4 1   
     4    3   10 1   
     5    3   11 1   
     6    3   17 1   
     7    4   12 1   
     8    4   18 1   
     9    5    6 2   
    10    5   13 1   
    11    5   14 1   
    12    6   15 1   
    13    6   16 1   
    14    7    8 2   
    15    7    9 2   
@<TRIPOS>SUBSTRUCTURE
     1 URP         1 TEMP              0 ****  ****    0 ROOT
