@<TRIPOS>MOLECULE
URQ
   21    18     1     0     0
SMALL
bcc


@<TRIPOS>ATOM
      1 O41        -0.4850    2.6820   -2.9810 o         1 URQ     -0.460500
      2 C4         -1.1310    3.4300   -2.2950 c1        1 URQ      0.925000
      3 O42        -1.7630    4.1620   -1.6230 o         1 URQ     -0.460500
      4 C5          3.5220   -1.8870   -1.5630 c2        1 URQ     -0.171200
      5 C7          3.3670   -2.8560   -2.6670 c3        1 URQ     -0.089900
      6 C6          2.6170   -1.6920   -0.6030 c2        1 URQ     -0.259000
      7 N1          1.4330    0.2790   -2.9370 n         1 URQ     -0.616000
      8 C2          1.5460    0.2580   -4.2840 c         1 URQ      0.650100
      9 O2          2.2070   -0.5030   -4.9970 o         1 URQ     -0.485100
     10 N3          0.7620    1.3090   -5.0870 n4        1 URQ     -0.747400
     11 H2          2.4290   -3.4560   -2.5680 hc        1 URQ      0.055033
     12 H3          4.2340   -3.5640   -2.6740 hc        1 URQ      0.055033
     13 H4          2.7820   -0.9870    0.2240 ha        1 URQ      0.121500
     14 H5          0.9590    1.1500   -6.0830 hn        1 URQ      0.473467
     15 H6          1.0490    2.2550   -4.8210 hn        1 URQ      0.473467
     16 H7          4.4760   -1.3290   -1.5640 ha        1 URQ      0.131000
     17 H8          3.3480   -2.3230   -3.6520 hc        1 URQ      0.055033
     18 H9          1.6800   -2.2630   -0.5440 ha        1 URQ      0.121500
     19 H10         0.8690    0.9370   -2.4500 hn        1 URQ      0.377500
     20 H12         1.9510   -0.4140   -2.4160 hn        1 URQ      0.377500
     21 H33        -0.2440    1.2200   -4.9130 hn        1 URQ      0.473467
@<TRIPOS>BOND
     1    1    2 2
     2    2    3 2
     3    4    5 1
     4    4    6 2
     5    4   16 1
     6    5   11 1
     7    5   12 1
     8    5   17 1
     9    6   13 1
    10    6   18 1
    11    7    8 1
    12    7   19 1
    13    7   20 1
    14    8    9 2
    15    8   10 1
    16   10   14 1
    17   10   15 1
    18   10   21 1
@<TRIPOS>SUBSTRUCTURE
     1 URQ         1 TEMP              0 ****  ****    0 ROOT
