@<TRIPOS>MOLECULE
molecule
   19    19     1     0     0
SMALL
bcc


@<TRIPOS>ATOM
      1 N1           0.0000     0.0000     0.0000 ns         1 URS      -0.327100
      2 N2          -2.2180     0.6880    -0.2460 nz         1 URS      -0.611400
      3 C1           3.6760     0.0000     0.0000 ca         1 URS      -0.107000
      4 C2           2.3710     0.0000     0.4540 ca         1 URS      -0.098000
      5 C3           1.3210     0.0000    -0.4560 ca         1 URS      -0.032400
      6 C4           1.5880    -0.0060    -1.8180 ca         1 URS      -0.098000
      7 C5           2.8950     0.0010    -2.2650 ca         1 URS      -0.107000
      8 C6           3.9370    -0.0000    -1.3570 ca         1 URS      -0.080000
      9 C7          -0.9220     0.7740    -0.6070 cs         1 URS       0.242400
     10 S1          -0.4470     1.8650    -1.8360 s          1 URS      -0.298400
     11 H1N         -0.2480    -0.5290     0.8130 hn         1 URS       0.335500
     12 H2N2        -2.7640     1.3060    -0.8130 hn         1 URS       0.470800
     13 H1N2        -2.5380    -0.2520    -0.3730 hn         1 URS       0.470800
     14 H1           4.4950    -0.0010     0.7090 ha         1 URS       0.160000
     15 H2           2.1670     0.0000     1.5170 ha         1 URS       0.144000
     16 H4           0.7720    -0.0060    -2.5300 ha         1 URS       0.144000
     17 H5           3.1030    -0.0020    -3.3280 ha         1 URS       0.160000
     18 H6           4.9610     0.0020    -1.7110 ha         1 URS       0.159000
     19 H23         -2.3120     0.9370     0.7190 hn         1 URS       0.470800
@<TRIPOS>BOND
     1     1     5 1
     2     1     9 1
     3     1    11 1
     4     2     9 1
     5     2    12 1
     6     2    13 1
     7     3     4 ar
     8     3     8 ar
     9     3    14 1
    10     4     5 ar
    11     4    15 1
    12     5     6 ar
    13     6     7 ar
    14     6    16 1
    15     7     8 ar
    16     7    17 1
    17     8    18 1
    18     9    10 2
    19    19     2 1
@<TRIPOS>SUBSTRUCTURE
     1 URS         1 TEMP              0 ****  ****    0 ROOT
