@<TRIPOS>MOLECULE
molecule
   51    54     1     0     0
SMALL
bcc


@<TRIPOS>ATOM
      1 C            0.0000     0.0000     0.0000 c          1 URY       0.896600
      2 N           -0.4900    -0.0090     3.7370 nu         1 URY      -0.891900
      3 O            1.2080     0.0000     0.0000 o          1 URY      -0.846300
      4 C1          -0.7530     0.0000     1.3070 c3         1 URY      -0.202400
      5 N1          -0.4520    -0.0160     6.0960 nb         1 URY      -0.843000
      6 O1          -0.6710     0.0070    -1.1620 o          1 URY      -0.846300
      7 C2           0.2430    -0.0080     2.4690 c3         1 URY       0.237800
      8 N2           0.0800    -0.0290     9.6750 nb         1 URY      -0.651000
      9 C3           0.2050    -0.0150     4.9380 ca         1 URY       0.748200
     10 N3           1.5280    -0.0290     7.2950 nb         1 URY      -0.813000
     11 C4           0.2040    -0.0230     7.2460 cp         1 URY       0.685000
     12 N4           3.6350    -0.0360     6.2360 nh         1 URY      -0.723300
     13 C5          -0.5650    -0.0230     8.5160 cp         1 URY       0.393300
     14 C6          -0.5650    -0.0290    10.8230 ca         1 URY       0.405200
     15 C7          -1.9480    -0.0220    10.8630 ca         1 URY      -0.258300
     16 C8          -2.6610    -0.0160     9.6730 ca         1 URY      -0.112000
     17 C9          -1.9570    -0.0160     8.4800 ca         1 URY      -0.206300
     18 C10          2.2500    -0.0290     6.1780 ca         1 URY       0.672200
     19 C11          4.0980    -0.0430     7.6140 c3         1 URY       0.186300
     20 C12          5.5590    -0.4970     7.6970 c3         1 URY      -0.043100
     21 C13          6.4460     0.7060     7.4550 ca         1 URY      -0.078800
     22 C14          7.1970     1.2270     8.4920 ca         1 URY      -0.125000
     23 C15          8.0050     2.3270     8.2650 ca         1 URY      -0.136000
     24 C16          8.0600     2.9000     7.0080 ca         1 URY      -0.136000
     25 C17          7.3070     2.3730     5.9740 ca         1 URY      -0.125000
     26 C18          6.5010     1.2740     6.2050 ca         1 URY      -0.078800
     27 C19          5.6760     0.6940     5.0750 c3         1 URY      -0.043100
     28 C20          4.1990     0.9800     5.3640 c3         1 URY       0.186300
     29 C21          1.5960    -0.0220     4.9480 ca         1 URY      -0.474600
     30 HN          -1.4900     0.0430     3.7380 hn         1 URY       0.442800
     31 H1          -1.3800    -0.8820     1.3620 hc         1 URY       0.036700
     32 H1A         -1.3710     0.8870     1.3670 hc         1 URY       0.036700
     33 H2           0.8690     0.8730     2.4140 h1         1 URY       0.054700
     34 H2A          0.8610    -0.8960     2.4080 h1         1 URY       0.054700
     35 H6          -0.0040    -0.0350    11.7500 h4         1 URY       0.016100
     36 H7          -2.4680    -0.0220    11.8130 ha         1 URY       0.128000
     37 H8          -3.7450    -0.0100     9.6770 ha         1 URY       0.133000
     38 H9          -2.4820    -0.0110     7.5320 ha         1 URY       0.167000
     39 H11          4.0280     0.9650     8.0050 h1         1 URY       0.060950
     40 H11A         3.4890    -0.7380     8.1790 h1         1 URY       0.060950
     41 H12          5.7520    -0.8830     8.6910 hc         1 URY       0.060950
     42 H12A         5.7440    -1.2340     6.9250 hc         1 URY       0.060950
     43 H14          7.1520     0.7770     9.4760 ha         1 URY       0.129000
     44 H15          8.5950     2.7400     9.0750 ha         1 URY       0.121000
     45 H16          8.6940     3.7610     6.8330 ha         1 URY       0.121000
     46 H17          7.3490     2.8200     4.9880 ha         1 URY       0.129000
     47 H19          5.9610     1.1610     4.1400 hc         1 URY       0.060950
     48 H19A         5.8350    -0.3760     5.0200 hc         1 URY       0.060950
     49 H20          4.1120     1.9480     5.8430 h1         1 URY       0.060950
     50 H20A         3.6500     0.9890     4.4290 h1         1 URY       0.060950
     51 H21          2.1590    -0.5620     4.1960 ha         1 URY       0.165000
@<TRIPOS>BOND
     1     3     1 1
     2     4     1 1
     3     1     6 1
     4     9     2 1
     5     2     7 1
     6     2    30 1
     7     7     4 1
     8     4    31 1
     9     4    32 1
    10    11     5 ar
    11     5     9 ar
    12     7    33 1
    13     7    34 1
    14    14     8 ar
    15     8    13 ar
    16     9    29 ar
    17    11    10 ar
    18    10    18 ar
    19    13    11 1
    20    28    12 1
    21    18    12 1
    22    12    19 1
    23    17    13 ar
    24    15    14 ar
    25    14    35 1
    26    15    16 ar
    27    15    36 1
    28    16    17 ar
    29    16    37 1
    30    17    38 1
    31    18    29 ar
    32    20    19 1
    33    19    39 1
    34    19    40 1
    35    21    20 1
    36    20    41 1
    37    20    42 1
    38    22    21 ar
    39    26    21 ar
    40    23    22 ar
    41    22    43 1
    42    24    23 ar
    43    23    44 1
    44    24    25 ar
    45    24    45 1
    46    25    26 ar
    47    25    46 1
    48    26    27 1
    49    27    28 1
    50    27    47 1
    51    27    48 1
    52    28    49 1
    53    28    50 1
    54    29    51 1
@<TRIPOS>SUBSTRUCTURE
     1 URY         1 TEMP              0 ****  ****    0 ROOT
