@<TRIPOS>MOLECULE
USC
   24    24     1     0     0
SMALL
bcc


@<TRIPOS>ATOM
      1 CAG          0.0000     0.0000     0.0000 c3         1 USC       0.007700
      2 OAI         -1.2450     4.4870    -2.7210 o          1 USC      -0.907550
      3 OAJ          3.9050     0.3270    -5.2180 o          1 USC      -0.907550
      4 OAO          2.3130     0.0000     1.3300 o          1 USC      -0.609800
      5 OAP          2.3130    -0.9120    -0.9690 o          1 USC      -0.609800
      6 CBG          0.8330     2.7270    -2.1200 ca         1 USC      -0.092000
      7 CBH          2.5830     1.3130    -2.9690 ca         1 USC      -0.092000
      8 CBI          1.1880     2.5520    -4.5030 ca         1 USC      -0.006000
      9 O2          -0.9690     4.3670    -4.9190 o          1 USC      -0.907550
     10 O1           2.6560     1.4410    -6.6770 o          1 USC      -0.907550
     11 NBU          2.2260     1.4910    -0.5920 nu         1 USC      -0.381500
     12 CBX         -0.6320     4.0230    -3.6610 c          1 USC       0.988200
     13 CBY          2.9880     1.0990    -5.4170 c          1 USC       0.988200
     14 CCF          1.8800     1.8450    -1.8980 ca         1 USC      -0.075400
     15 CCG          0.4830     3.0840    -3.4240 ca         1 USC      -0.151600
     16 CCH          2.2390     1.6650    -4.2760 ca         1 USC      -0.151600
     17 SCT          1.8140     0.0000     0.0000 s6         1 USC       0.926900
     18 HAG         -0.3610     0.9520     0.3700 h1         1 USC       0.060367
     19 HAGA        -0.3610    -0.7970     0.6390 h1         1 USC       0.060367
     20 HAGB        -0.3610    -0.1550    -1.0100 h1         1 USC       0.060367
     21 HBG          0.2860     3.1410    -1.2810 ha         1 USC       0.115000
     22 HBH          3.4000     0.6240    -2.7920 ha         1 USC       0.115000
     23 HBI          0.9190     2.8270    -5.5160 ha         1 USC       0.155000
     24 HNBU         2.7390     2.1320    -0.0190 hn         1 USC       0.323800
@<TRIPOS>BOND
     1     1    17 1   
     2     1    18 1   
     3     1    19 1   
     4     1    20 1   
     5     2    12 1   
     6     3    13 1   
     7     4    17 2   
     8     5    17 2   
     9     6    14 ar  
    10     6    15 ar  
    11     6    21 1   
    12     7    14 ar  
    13     7    16 ar  
    14     7    22 1   
    15     8    15 ar  
    16     8    16 ar  
    17     8    23 1   
    18     9    12 1   
    19    10    13 1   
    20    11    14 1   
    21    11    17 1   
    22    11    24 1   
    23    12    15 1   
    24    13    16 1   
@<TRIPOS>SUBSTRUCTURE
     1 USC         1 TEMP              0 ****  ****    0 ROOT
