@<TRIPOS>MOLECULE
UTH
   54    57     1     0     0
SMALL
bcc


@<TRIPOS>ATOM
      1 C01         0.8430    2.9190   -0.2440 c3        1 UTH     -0.133400
      2 C02         1.6520    1.8010    0.2760 cc        1 UTH      0.366600
      3 N01         2.1810    1.7110    1.5120 nd        1 UTH     -0.393300
      4 O01         2.8300    0.5670    1.6300 os        1 UTH     -0.135100
      5 C03         2.7520   -0.1650    0.4210 cd        1 UTH      0.269000
      6 C04         3.4180   -1.4660    0.4100 c3        1 UTH     -0.137400
      7 C05         2.0110    0.5870   -0.4770 cc        1 UTH     -0.358100
      8 C06         1.6560    0.2660   -1.8520 ca        1 UTH      0.493800
      9 C07         2.5640   -0.5470   -2.6060 ca        1 UTH     -0.281300
     10 C08         2.2540   -0.8580   -3.9060 ca        1 UTH     -0.051000
     11 C09         1.0510   -0.3810   -4.4850 ca        1 UTH     -0.198300
     12 C10         0.6490   -0.6850   -5.8400 ca        1 UTH      0.171600
     13 N02         1.4350   -1.5460   -6.6410 nh        1 UTH     -0.624000
     14 C11         2.7040   -1.1630   -7.1020 ca        1 UTH      0.176600
     15 C12         3.2890    0.0560   -6.6780 ca        1 UTH     -0.197000
     16 C13         4.5830    0.4050   -7.0350 ca        1 UTH     -0.105000
     17 C14         5.3310   -0.4490   -7.8370 ca        1 UTH     -0.190000
     18 C15         4.7620   -1.6360   -8.2910 ca        1 UTH     -0.109000
     19 C16         3.4590   -2.0230   -7.9620 ca        1 UTH     -0.106300
     20 C17         2.8970   -3.3070   -8.5290 c3        1 UTH      0.001300
     21 C18         3.8860   -3.9890   -9.4800 c3        1 UTH     -0.090100
     22 C19         2.6290   -4.3090   -7.4060 c3        1 UTH     -0.090100
     23 C20         1.6180   -3.0370   -9.3260 c3        1 UTH     -0.090100
     24 C21        -0.5850   -0.2100   -6.2770 ca        1 UTH     -0.276900
     25 C22        -1.3600    0.5860   -5.3760 ca        1 UTH      0.464200
     26 N1         -1.0310    0.9100   -4.1410 nb        1 UTH     -0.685000
     27 C23         0.1820    0.4210   -3.6600 ca        1 UTH      0.632300
     28 C1         -1.1990   -0.4730   -7.6460 c         1 UTH      0.919200
     29 O02        -2.0990    0.3210   -8.0310 o         1 UTH     -0.819300
     30 O1         -0.8020   -1.4710   -8.3150 o         1 UTH     -0.819300
     31 N51         0.5120    0.7370   -2.3490 nb        1 UTH     -0.646000
     32 H011        0.8460    3.7930    0.4530 hc        1 UTH      0.065033
     33 H012       -0.2130    2.5750   -0.3910 hc        1 UTH      0.065033
     34 H013        1.2450    3.2430   -1.2360 hc        1 UTH      0.065033
     35 H041        4.4620   -1.3590    0.0180 hc        1 UTH      0.063367
     36 H042        2.8570   -2.1740   -0.2520 hc        1 UTH      0.063367
     37 H043        3.4700   -1.8900    1.4440 hc        1 UTH      0.063367
     38 H07         3.4930   -0.8960   -2.1380 ha        1 UTH      0.132000
     39 H08         2.9410   -1.4770   -4.5060 ha        1 UTH      0.153000
     40 H02         0.8650   -2.0030   -7.3480 hn        1 UTH      0.477800
     41 H12         2.7030    0.7520   -6.0560 ha        1 UTH      0.143000
     42 H13         5.0070    1.3570   -6.6860 ha        1 UTH      0.120000
     43 H14         6.3590   -0.1880   -8.1220 ha        1 UTH      0.116000
     44 H15         5.3900   -2.2700   -8.9360 ha        1 UTH      0.121000
     45 H181        4.1420   -3.3160  -10.3320 hc        1 UTH      0.038033
     46 H182        4.8180   -4.2840   -8.9430 hc        1 UTH      0.038033
     47 H183        3.4220   -4.9160   -9.8970 hc        1 UTH      0.038033
     48 H191        2.4100   -5.3140   -7.8450 hc        1 UTH      0.038033
     49 H192        3.5260   -4.3960   -6.7480 hc        1 UTH      0.038033
     50 H193        1.7550   -4.0180   -6.7800 hc        1 UTH      0.038033
     51 H201        1.4730   -1.9440   -9.5120 hc        1 UTH      0.038033
     52 H202        0.7090   -3.4080   -8.7880 hc        1 UTH      0.038033
     53 H203        1.6510   -3.5500  -10.3180 hc        1 UTH      0.038033
     54 H22        -2.3250    0.9860   -5.7590 h4        1 UTH      0.056100
@<TRIPOS>BOND
     1    1    2 1   
     2    1   32 1   
     3    1   33 1   
     4    1   34 1   
     5    2    3 2   
     6    2    7 1   
     7    3    4 1   
     8    4    5 1   
     9    5    6 1   
    10    5    7 2   
    11    6   35 1   
    12    6   36 1   
    13    6   37 1   
    14    7    8 1   
    15    8    9 ar  
    16    8   31 ar  
    17    9   10 ar  
    18    9   38 1   
    19   10   11 ar  
    20   10   39 1   
    21   11   12 ar  
    22   11   27 ar  
    23   12   13 1   
    24   12   24 ar  
    25   13   14 1   
    26   13   40 1   
    27   14   15 ar  
    28   14   19 ar  
    29   15   16 ar  
    30   15   41 1   
    31   16   17 ar  
    32   16   42 1   
    33   17   18 ar  
    34   17   43 1   
    35   18   19 ar  
    36   18   44 1   
    37   19   20 1   
    38   20   21 1   
    39   20   22 1   
    40   20   23 1   
    41   21   45 1   
    42   21   46 1   
    43   21   47 1   
    44   22   48 1   
    45   22   49 1   
    46   22   50 1   
    47   23   51 1   
    48   23   52 1   
    49   23   53 1   
    50   24   25 ar  
    51   24   28 1   
    52   25   26 ar  
    53   25   54 1   
    54   26   27 ar  
    55   27   31 ar  
    56   28   29 1   
    57   28   30 1   
@<TRIPOS>SUBSTRUCTURE
     1 UTH         1 TEMP              0 ****  ****    0 ROOT
