@<TRIPOS>MOLECULE
molecule
   18    18     1     0     0
SMALL
bcc


@<TRIPOS>ATOM
      1 C01          0.0000     0.0000     0.0000 c3         1 UU3       0.121400
      2 C02          1.5300     0.0000     0.0000 c3         1 UU3       0.151100
      3 C03          2.0410     0.0000     1.4420 c3         1 UU3       0.034100
      4 C04          3.5470    -0.1320     1.4550 c          1 UU3       0.456100
      5 O05          4.3580     0.6190     0.9670 o          1 UU3      -0.418100
      6 C06          3.8140    -1.3960     2.2060 c          1 UU3       0.366100
      7 O07          4.8930    -1.8810     2.4490 o          1 UU3      -0.372100
      8 C08          2.4810    -1.9430     2.5950 c          1 UU3       0.641600
      9 O09          2.3080    -2.9670     3.2210 o          1 UU3      -0.500500
     10 O10          1.5000    -1.1400     2.1570 os         1 UU3      -0.366900
     11 O11          2.0070    -1.1660    -0.6750 oh         1 UU3      -0.599800
     12 O12         -0.4760     0.1190    -1.3420 oh         1 UU3      -0.612800
     13 H1          -0.3610    -0.9260     0.4310 h1         1 UU3       0.042200
     14 H2          -0.3610     0.8360     0.5870 h1         1 UU3       0.042200
     15 H3           1.8910     0.8850    -0.5100 h1         1 UU3       0.067700
     16 H4           1.7500     0.9160     1.9410 h1         1 UU3       0.108700
     17 H5           2.2240    -0.9470    -1.5660 ho         1 UU3       0.426000
     18 H6          -1.4120     0.2290    -1.3350 ho         1 UU3       0.413000
@<TRIPOS>BOND
     1     7     6 2
     2     9     8 2
     3     6     8 1
     4     6     4 1
     5     8    10 1
     6    12     1 1
     7     4     5 2
     8     4     3 1
     9    10     3 1
    10     1     2 1
    11     3     2 1
    12     2    11 1
    13     1    13 1
    14     1    14 1
    15     2    15 1
    16     3    16 1
    17    11    17 1
    18    12    18 1
@<TRIPOS>SUBSTRUCTURE
     1 UU3         1 TEMP              0 ****  ****    0 ROOT
