@<TRIPOS>MOLECULE
UUA
   27    28     1     0     0
SMALL
bcc


@<TRIPOS>ATOM
      1 N1           0.0000     0.0000     0.0000 n          1 UUA       0.060000
      2 C4          -0.7260     0.0000    -1.2720 c3         1 UUA       0.200500
      3 C5           0.4930    -1.0820    -4.4540 c          1 UUA       0.968600
      4 C6           1.3450     0.0000     0.0000 c          1 UUA       0.564500
      5 C7           1.3900    -0.0000     2.3350 c          1 UUA       0.624700
      6 C8          -0.0260     0.0050     2.3510 cc         1 UUA      -0.348200
      7 O8           0.3270    -0.8890    -5.7720 o          1 UUA      -0.873800
      8 O2           1.5050    -1.5960    -4.0420 o          1 UUA      -0.873800
      9 C1          -0.5820    -0.6530    -3.4890 c3         1 UUA       0.054100
     10 C2          -0.7300     0.8800    -3.5140 c3         1 UUA       0.161100
     11 O3          -2.0520     1.2490    -3.9110 oh         1 UUA      -0.582800
     12 C3          -0.4590     1.3130    -2.0520 c3         1 UUA       0.106100
     13 O4          -1.3660     2.3400    -1.6480 oh         1 UUA      -0.575800
     14 O1          -0.2130    -1.0250    -2.1500 os         1 UUA      -0.349600
     15 O6           1.9440     0.0000    -1.0590 o          1 UUA      -0.623500
     16 C9          -0.6960     0.0050     1.1780 cd         1 UUA      -0.059400
     17 N2           2.0380     0.0000     1.1530 ns         1 UUA      -0.138500
     18 O5           2.0160     0.0000     3.3800 o          1 UUA      -0.699500
     19 H1          -1.7890    -0.1350    -1.1110 h2         1 UUA       0.038700
     20 H2          -0.5640     0.0070     3.2910 ha         1 UUA       0.141000
     21 H4          -1.5260    -1.1160    -3.7520 h1         1 UUA       0.028700
     22 H5           0.0060     1.3170    -4.1780 h1         1 UUA       0.040700
     23 H6          -2.0110     1.7770    -4.6910 ho         1 UUA       0.386000
     24 H7           0.5700     1.6280    -1.9310 h1         1 UUA       0.045700
     25 H8          -0.9070     3.1620    -1.5970 ho         1 UUA       0.378000
     26 H9          -1.7790     0.0090     1.1700 h4         1 UUA       0.127000
     27 H10          3.0380    -0.0020     1.1340 hn         1 UUA       0.200500
@<TRIPOS>BOND
     1     1     2 1   
     2     1     4 1   
     3     1    16 1   
     4     2    12 1   
     5     2    14 1   
     6     2    19 1   
     7     3     7 1   
     8     3     8 1   
     9     3     9 1   
    10     4    15 2   
    11     4    17 1   
    12     5     6 1   
    13     5    17 1   
    14     5    18 2   
    15     6    16 2   
    16     6    20 1   
    17     9    10 1   
    18     9    14 1   
    19     9    21 1   
    20    10    11 1   
    21    10    12 1   
    22    10    22 1   
    23    11    23 1   
    24    12    13 1   
    25    12    24 1   
    26    13    25 1   
    27    16    26 1   
    28    17    27 1   
@<TRIPOS>SUBSTRUCTURE
     1 UUA         1 TEMP              0 ****  ****    0 ROOT
