@<TRIPOS>MOLECULE
UUD
   21    22     1     0     0
SMALL
bcc


@<TRIPOS>ATOM
      1 O            0.0000     0.0000     0.0000 o          1 UUD      -0.632100
      2 C1           1.2160     0.0000     0.0000 c          1 UUD       0.715500
      3 C            1.9700     0.0000     1.3050 c3         1 UUD      -0.045100
      4 N            1.8800    -0.0050    -1.1510 ne         1 UUD      -0.700100
      5 C2           1.2150    -0.0120    -2.3030 cd         1 UUD       0.433700
      6 S           -0.4940    -0.0110    -2.4980 ss         1 UUD      -0.127100
      7 C8          -0.4550    -0.0210    -4.2650 ca         1 UUD      -0.040100
      8 C3           0.8950    -0.0230    -4.6220 ca         1 UUD      -0.191200
      9 N1           1.7530    -0.0120    -3.5400 na         1 UUD       0.235700
     10 C7          -1.4540    -0.0250    -5.2240 ca         1 UUD      -0.011000
     11 C6          -1.1210    -0.0320    -6.5640 ca         1 UUD      -0.112000
     12 C5           0.2110    -0.0350    -6.9370 ca         1 UUD      -0.067000
     13 C4           1.2090    -0.0310    -5.9890 ca         1 UUD      -0.099000
     14 HC1          2.5380    -0.9180     1.3940 hc         1 UUD       0.021367
     15 HC2          1.2680     0.0710     2.1270 hc         1 UUD       0.021367
     16 HC3          2.6450     0.8470     1.3320 hc         1 UUD       0.021367
     17 H1           2.7450    -0.0050    -3.6700 hn         1 UUD       0.133700
     18 H7          -2.4950    -0.0230    -4.9230 ha         1 UUD       0.115000
     19 H4           2.2460    -0.0330    -6.3010 ha         1 UUD       0.108000
     20 H6          -1.8990    -0.0360    -7.3180 ha         1 UUD       0.112000
     21 H5           0.4730    -0.0410    -7.9890 ha         1 UUD       0.107000
@<TRIPOS>BOND
     1     1     2 2   
     2     2     3 1   
     3     2     4 1   
     4     3    14 1   
     5     3    15 1   
     6     3    16 1   
     7     4     5 2   
     8     5     6 1   
     9     5     9 1   
    10     6     7 1   
    11     7     8 ar  
    12     7    10 ar  
    13     8     9 1   
    14     8    13 ar  
    15     9    17 1   
    16    10    11 ar  
    17    10    18 1   
    18    11    12 ar  
    19    11    20 1   
    20    12    13 ar  
    21    12    21 1   
    22    13    19 1   
@<TRIPOS>SUBSTRUCTURE
     1 UUD         1 TEMP              0 ****  ****    0 ROOT
