@<TRIPOS>MOLECULE
UUL
   31    33     1     0     0
SMALL
bcc


@<TRIPOS>ATOM
      1 C16          0.0000     0.0000     0.0000 ca         1 UUL      -0.117000
      2 C19          1.3810     0.0000     0.0000 ca         1 UUL      -0.107000
      3 C12          2.0750     0.0000     1.2010 ca         1 UUL       0.110100
      4 O20          3.4350     0.0000     1.1990 oh         1 UUL      -0.498100
      5 C18          1.3830     0.0010     2.4030 ca         1 UUL      -0.107000
      6 C17          0.0010     0.0030     2.4050 ca         1 UUL      -0.117000
      7 C10         -0.6940     0.0080     1.2030 ca         1 UUL      -0.031400
      8 N6          -2.0940     0.0090     1.2050 nu         1 UUL      -0.262300
      9 C2          -2.7870     0.7100     0.2320 cc         1 UUL       0.568300
     10 N1          -4.0730     0.6890     0.0650 nd         1 UUL      -0.651000
     11 S4          -2.0600     1.7770    -0.9650 ss         1 UUL      -0.339300
     12 C5          -3.6530     2.1180    -1.6350 cc         1 UUL      -0.155400
     13 C3          -4.5650     1.4300    -0.9260 cd         1 UUL       0.436800
     14 C7          -6.0160     1.4950    -1.2250 ca         1 UUL      -0.129500
     15 C8          -6.4800     2.2820    -2.2790 ca         1 UUL      -0.072500
     16 C14         -7.8310     2.3390    -2.5520 ca         1 UUL      -0.104000
     17 C11         -8.7260     1.6160    -1.7830 ca         1 UUL      -0.029600
     18 Cl         -10.4240     1.6910    -2.1330 cl         1 UUL      -0.030400
     19 C13         -8.2710     0.8330    -0.7350 ca         1 UUL      -0.104000
     20 C9          -6.9220     0.7640    -0.4570 ca         1 UUL      -0.072500
     21 H1          -0.5420     0.0020    -0.9380 ha         1 UUL       0.125500
     22 H2           1.9220    -0.0060    -0.9380 ha         1 UUL       0.116500
     23 H3           3.7500    -0.8880     1.2010 ho         1 UUL       0.402000
     24 H4           1.9250    -0.0010     3.3400 ha         1 UUL       0.116500
     25 H5          -0.5390     0.0060     3.3440 ha         1 UUL       0.125500
     26 H6          -2.5940    -0.5190     1.8930 hn         1 UUL       0.293800
     27 H7          -3.8630     2.7710    -2.4730 h4         1 UUL       0.167000
     28 H8          -5.7800     2.8480    -2.8820 ha         1 UUL       0.117500
     29 H9          -8.1920     2.9500    -3.3700 ha         1 UUL       0.115000
     30 H10         -8.9760     0.2670    -0.1380 ha         1 UUL       0.115000
     31 H11         -6.5680     0.1510     0.3630 ha         1 UUL       0.117500
@<TRIPOS>BOND
     1     1     2 ar  
     2     1     7 ar  
     3     1    21 1   
     4     2     3 ar  
     5     2    22 1   
     6     3     4 1   
     7     3     5 ar  
     8     4    23 1   
     9     5     6 ar  
    10     5    24 1   
    11     6     7 ar  
    12     6    25 1   
    13     7     8 1   
    14     8     9 1   
    15     8    26 1   
    16     9    10 2   
    17     9    11 1   
    18    10    13 1   
    19    11    12 1   
    20    12    13 2   
    21    12    27 1   
    22    13    14 1   
    23    14    15 ar  
    24    14    20 ar  
    25    15    16 ar  
    26    15    28 1   
    27    16    17 ar  
    28    16    29 1   
    29    17    18 1   
    30    17    19 ar  
    31    19    20 ar  
    32    19    30 1   
    33    20    31 1   
@<TRIPOS>SUBSTRUCTURE
     1 UUL         1 TEMP              0 ****  ****    0 ROOT
