@<TRIPOS>MOLECULE
molecule
   31    33     1     0     0
SMALL
bcc


@<TRIPOS>ATOM
      1 C16          0.0000     0.0000     0.0000 ca         1 UUL      -0.154000
      2 C19          1.3810     0.0000     0.0000 ca         1 UUL      -0.122000
      3 C12          2.0750     0.0000     1.2010 ca         1 UUL       0.086100
      4 O20          3.4350     0.0000     1.1990 oh         1 UUL      -0.519100
      5 C18          1.3830     0.0010     2.4030 ca         1 UUL      -0.122000
      6 C17          0.0010     0.0030     2.4050 ca         1 UUL      -0.154000
      7 C10         -0.6940     0.0080     1.2030 ca         1 UUL       0.145600
      8 N6          -2.0940     0.0090     1.2050 nu         1 UUL      -0.751300
      9 C2          -2.7870     0.7100     0.2320 cc         1 UUL       0.740300
     10 N1          -4.0730     0.6890     0.0650 nd         1 UUL      -0.755000
     11 S4          -2.0600     1.7770    -0.9650 ss         1 UUL      -0.245300
     12 C5          -3.6530     2.1180    -1.6350 cc         1 UUL      -0.208400
     13 C3          -4.5650     1.4300    -0.9260 cd         1 UUL       0.462800
     14 C7          -6.0160     1.4950    -1.2250 ca         1 UUL      -0.119500
     15 C8          -6.4800     2.2820    -2.2790 ca         1 UUL      -0.097500
     16 C14         -7.8310     2.3390    -2.5520 ca         1 UUL      -0.126500
     17 C11         -8.7260     1.6160    -1.7830 ca         1 UUL       0.032400
     18 Cl         -10.4240     1.6910    -2.1330 cl         1 UUL      -0.111400
     19 C13         -8.2710     0.8330    -0.7350 ca         1 UUL      -0.126500
     20 C9          -6.9220     0.7640    -0.4570 ca         1 UUL      -0.097500
     21 H1          -0.5420     0.0020    -0.9380 ha         1 UUL       0.147000
     22 H2           1.9220    -0.0060    -0.9380 ha         1 UUL       0.146500
     23 H3           3.7500    -0.8880     1.2010 ho         1 UUL       0.419000
     24 H4           1.9250    -0.0010     3.3400 ha         1 UUL       0.146500
     25 H5          -0.5390     0.0060     3.3440 ha         1 UUL       0.147000
     26 H6          -2.5940    -0.5190     1.8930 hn         1 UUL       0.469800
     27 H7          -3.8630     2.7710    -2.4730 h4         1 UUL       0.182000
     28 H8          -5.7800     2.8480    -2.8820 ha         1 UUL       0.147500
     29 H9          -8.1920     2.9500    -3.3700 ha         1 UUL       0.145000
     30 H10         -8.9760     0.2670    -0.1380 ha         1 UUL       0.145000
     31 H11         -6.5680     0.1510     0.3630 ha         1 UUL       0.147500
@<TRIPOS>BOND
     1    11     9 1
     2    11    12 1
     3     8     9 1
     4     8     7 1
     5     9    10 2
     6    12    13 2
     7     6     7 ar
     8     6     5 ar
     9     7     1 ar
    10     5     3 ar
    11    10    13 1
    12     1     2 ar
    13    13    14 1
    14     3     2 ar
    15     3     4 1
    16    14    20 ar
    17    14    15 ar
    18    20    19 ar
    19    15    16 ar
    20    19    17 ar
    21    16    17 ar
    22    17    18 1
    23     1    21 1
    24     2    22 1
    25     4    23 1
    26     5    24 1
    27     6    25 1
    28     8    26 1
    29    12    27 1
    30    15    28 1
    31    16    29 1
    32    19    30 1
    33    20    31 1
@<TRIPOS>SUBSTRUCTURE
     1 UUL         1 TEMP              0 ****  ****    0 ROOT
