@<TRIPOS>MOLECULE
UUN
   30    31     1     0     0
SMALL
bcc


@<TRIPOS>ATOM
      1 C            0.0000     0.0000     0.0000 c3         1 UUN       0.018700
      2 N           -1.8270     0.0010     1.6680 ns         1 UUN      -0.047400
      3 O           -2.2990     0.0010     3.0040 oh         1 UUN      -0.432100
      4 S            1.8090     0.0000     0.0000 ss         1 UUN      -0.213300
      5 C1          -0.5020     0.0000     1.4210 c          1 UUN       0.580100
      6 N1           3.4000    -0.0010    -2.1860 ns         1 UUN       0.070600
      7 O1           0.2860     0.0000     2.3430 o          1 UUN      -0.592100
      8 C2           2.1150    -0.0000    -1.7350 cc         1 UUN       0.328800
      9 N2           1.0960     0.0000    -2.5700 nd         1 UUN      -0.598300
     10 C3           3.6540     0.0000    -3.5110 c          1 UUN       0.587700
     11 C4           2.5750     0.0000    -4.4070 cc         1 UUN      -0.303200
     12 C5           1.2840     0.0000    -3.8950 cd         1 UUN       0.232400
     13 C6           0.1200     0.0000    -4.8120 ca         1 UUN      -0.068800
     14 C7          -1.1760    -0.0010    -4.2980 ca         1 UUN      -0.072000
     15 C8          -2.2560    -0.0010    -5.1570 ca         1 UUN      -0.108000
     16 C9          -2.0550    -0.0020    -6.5260 ca         1 UUN      -0.083000
     17 C10         -0.7710    -0.0010    -7.0420 ca         1 UUN      -0.108000
     18 C11          0.3170     0.0060    -6.1930 ca         1 UUN      -0.072000
     19 H           -0.3610     0.8850    -0.5110 h1         1 UUN       0.063700
     20 HA          -0.3610    -0.8850    -0.5110 h1         1 UUN       0.063700
     21 HN          -2.4740     0.0780     0.9090 hn         1 UUN       0.155500
     22 HO          -3.2420     0.0010     3.0040 ho         1 UUN       0.396000
     23 HN1          4.1590    -0.0020    -1.5330 hn         1 UUN       0.189500
     24 H4           2.7440     0.0000    -5.4760 ha         1 UUN       0.153000
     25 H7          -1.3340    -0.0000    -3.2260 ha         1 UUN       0.114000
     26 H8          -3.2630    -0.0020    -4.7590 ha         1 UUN       0.104500
     27 H9          -2.9060    -0.0050    -7.1960 ha         1 UUN       0.103000
     28 H10         -0.6190     0.0010    -8.1150 ha         1 UUN       0.104500
     29 H11          1.3220     0.0070    -6.5980 ha         1 UUN       0.114000
     30 O2           4.8030    -0.0010    -3.9240 o          1 UUN      -0.681500
@<TRIPOS>BOND
     1     1     4 1   
     2     1     5 1   
     3     1    19 1   
     4     1    20 1   
     5     2     3 1   
     6     2     5 1   
     7     2    21 1   
     8     3    22 1   
     9     4     8 1   
    10     5     7 2   
    11     6     8 1   
    12     6    10 1   
    13     6    23 1   
    14     8     9 2   
    15     9    12 1   
    16    10    11 1   
    17    10    30 2   
    18    11    12 2   
    19    11    24 1   
    20    12    13 1   
    21    13    14 ar  
    22    13    18 ar  
    23    14    15 ar  
    24    14    25 1   
    25    15    16 ar  
    26    15    26 1   
    27    16    17 ar  
    28    16    27 1   
    29    17    18 ar  
    30    17    28 1   
    31    18    29 1   
@<TRIPOS>SUBSTRUCTURE
     1 UUN         1 TEMP              0 ****  ****    0 ROOT
