@<TRIPOS>MOLECULE
molecule
   30    31     1     0     0
SMALL
bcc


@<TRIPOS>ATOM
      1 C            0.0000     0.0000     0.0000 c3         1 UUN      -0.086300
      2 N           -1.8270     0.0010     1.6680 ns         1 UUN      -0.465400
      3 O           -2.2990     0.0010     3.0040 oh         1 UUN      -0.354100
      4 S            1.8090     0.0000     0.0000 ss         1 UUN      -0.075300
      5 C1          -0.5020     0.0000     1.4210 c          1 UUN       0.681100
      6 N1           3.4000    -0.0010    -2.1860 ns         1 UUN      -0.429400
      7 O1           0.2860     0.0000     2.3430 o          1 UUN      -0.559100
      8 C2           2.1150    -0.0000    -1.7350 cc         1 UUN       0.500800
      9 N2           1.0960     0.0000    -2.5700 nd         1 UUN      -0.700300
     10 C3           3.6540     0.0000    -3.5110 c          1 UUN       0.691700
     11 C4           2.5750     0.0000    -4.4070 cc         1 UUN      -0.318200
     12 C5           1.2840     0.0000    -3.8950 cd         1 UUN       0.262400
     13 C6           0.1200     0.0000    -4.8120 ca         1 UUN      -0.059800
     14 C7          -1.1760    -0.0010    -4.2980 ca         1 UUN      -0.094500
     15 C8          -2.2560    -0.0010    -5.1570 ca         1 UUN      -0.136000
     16 C9          -2.0550    -0.0020    -6.5260 ca         1 UUN      -0.110000
     17 C10         -0.7710    -0.0010    -7.0420 ca         1 UUN      -0.136000
     18 C11          0.3170     0.0060    -6.1930 ca         1 UUN      -0.094500
     19 H           -0.3610     0.8850    -0.5110 h1         1 UUN       0.099700
     20 HA          -0.3610    -0.8850    -0.5110 h1         1 UUN       0.099700
     21 HN          -2.4740     0.0780     0.9090 hn         1 UUN       0.322500
     22 HO          -3.2420     0.0010     3.0040 ho         1 UUN       0.403000
     23 HN1          4.1590    -0.0020    -1.5330 hn         1 UUN       0.345500
     24 H4           2.7440     0.0000    -5.4760 ha         1 UUN       0.171000
     25 H7          -1.3340    -0.0000    -3.2260 ha         1 UUN       0.141000
     26 H8          -3.2630    -0.0020    -4.7590 ha         1 UUN       0.133500
     27 H9          -2.9060    -0.0050    -7.1960 ha         1 UUN       0.132000
     28 H10         -0.6190     0.0010    -8.1150 ha         1 UUN       0.133500
     29 H11          1.3220     0.0070    -6.5980 ha         1 UUN       0.141000
     30 O2           4.8030    -0.0010    -3.9240 o          1 UUN      -0.638500
@<TRIPOS>BOND
     1     1     4 1
     2     1     5 1
     3     2     3 1
     4     2     5 1
     5     4     8 1
     6     5     7 2
     7     6     8 1
     8     6    10 1
     9     8     9 2
    10     9    12 1
    11    30    10 2
    12    10    11 1
    13    11    12 2
    14    12    13 1
    15    13    14 ar
    16    13    18 ar
    17    14    15 ar
    18    15    16 ar
    19    16    17 ar
    20    17    18 ar
    21     1    19 1
    22     1    20 1
    23     2    21 1
    24     3    22 1
    25     6    23 1
    26    11    24 1
    27    14    25 1
    28    15    26 1
    29    16    27 1
    30    17    28 1
    31    18    29 1
@<TRIPOS>SUBSTRUCTURE
     1 UUN         1 TEMP              0 ****  ****    0 ROOT
