@<TRIPOS>MOLECULE
molecule
   29    30     1     0     0
SMALL
bcc


@<TRIPOS>ATOM
      1 C01          0.0000     0.0000     0.0000 ca         1 UV4      -0.089000
      2 C02          1.3830     0.0000     0.0000 ca         1 UV4      -0.129000
      3 C03          2.0780     0.0000     1.1910 ca         1 UV4      -0.089000
      4 C04          1.3830     0.0010     2.4060 ca         1 UV4      -0.142600
      5 C05          2.1230     0.0010     3.6830 c          1 UV4       0.600100
      6 O06          1.5180     0.0020     4.7360 o          1 UV4      -0.487100
      7 N07          3.4710     0.0010     3.6820 ne         1 UV4      -0.089100
      8 O08          4.0820     0.0020     4.7350 o          1 UV4      -0.068300
      9 C09         -0.0140     0.0010     2.4060 ca         1 UV4      -0.102000
     10 C10         -0.7020     0.0000     1.2030 ca         1 UV4       0.045600
     11 N11         -2.1000     0.0010     1.1960 ns         1 UV4      -0.476100
     12 C12         -2.7690    -0.6410     0.2180 c          1 UV4       0.678700
     13 O13         -2.1620    -1.2990    -0.6040 o          1 UV4      -0.594100
     14 C14         -4.2420    -0.5430     0.1440 ca         1 UV4      -0.153600
     15 C15         -4.9390    -1.2060    -0.8680 ca         1 UV4      -0.083500
     16 C16         -6.3140    -1.1110    -0.9310 ca         1 UV4      -0.137000
     17 C17         -7.0020    -0.3600     0.0050 ca         1 UV4      -0.100000
     18 C18         -6.3180     0.2990     1.0110 ca         1 UV4      -0.137000
     19 C19         -4.9440     0.2080     1.0890 ca         1 UV4      -0.083500
     20 H01         -0.5400    -0.0000    -0.9390 ha         1 UV4       0.167000
     21 H02          1.9230    -0.0000    -0.9390 ha         1 UV4       0.143000
     22 H03          3.1610     0.0000     1.1860 ha         1 UV4       0.150000
     23 H09         -0.5580     0.0010     3.3420 ha         1 UV4       0.152000
     24 HN11        -2.6030     0.4610     1.9280 hn         1 UV4       0.329500
     25 H15         -4.4010    -1.7950    -1.6020 ha         1 UV4       0.141000
     26 H16         -6.8560    -1.6250    -1.7150 ha         1 UV4       0.137500
     27 H17         -8.0810    -0.2870    -0.0500 ha         1 UV4       0.135000
     28 H18         -6.8630     0.8840     1.7420 ha         1 UV4       0.137500
     29 H19         -4.4090     0.7250     1.8770 ha         1 UV4       0.141000
@<TRIPOS>BOND
     1     1     2 ar
     2     1    10 ar
     3     2     3 ar
     4     3     4 ar
     5     4     5 1
     6     4     9 ar
     7     5     6 2
     8     5     7 1
     9     7     8 2
    10     9    10 ar
    11    10    11 1
    12    11    12 1
    13    12    13 2
    14    12    14 1
    15    14    15 ar
    16    14    19 ar
    17    15    16 ar
    18    16    17 ar
    19    17    18 ar
    20    18    19 ar
    21     1    20 1
    22     2    21 1
    23     3    22 1
    24     9    23 1
    25    11    24 1
    26    15    25 1
    27    16    26 1
    28    17    27 1
    29    18    28 1
    30    19    29 1
@<TRIPOS>SUBSTRUCTURE
     1 UV4         1 TEMP              0 ****  ****    0 ROOT
