@<TRIPOS>MOLECULE
UV4
   29    30     1     0     0
SMALL
bcc


@<TRIPOS>ATOM
      1 C01          0.0000     0.0000     0.0000 ca         1 UV4      -0.063000
      2 C02          1.3830     0.0000     0.0000 ca         1 UV4      -0.098000
      3 C03          2.0780     0.0000     1.1910 ca         1 UV4      -0.059000
      4 C04          1.3830     0.0010     2.4060 ca         1 UV4      -0.161600
      5 C05          2.1230     0.0010     3.6830 c          1 UV4       0.624100
      6 O06          1.5180     0.0020     4.7360 o          1 UV4      -0.513100
      7 N07          3.4710     0.0010     3.6820 ne         1 UV4       0.022900
      8 O08          4.0820     0.0020     4.7350 o          1 UV4      -0.149300
      9 C09         -0.0140     0.0010     2.4060 ca         1 UV4      -0.068000
     10 C10         -0.7020     0.0000     1.2030 ca         1 UV4      -0.102400
     11 N11         -2.1000     0.0010     1.1960 ns         1 UV4      -0.038100
     12 C12         -2.7690    -0.6410     0.2180 c          1 UV4       0.590700
     13 O13         -2.1620    -1.2990    -0.6040 o          1 UV4      -0.636100
     14 C14         -4.2420    -0.5430     0.1440 ca         1 UV4      -0.167600
     15 C15         -4.9390    -1.2060    -0.8680 ca         1 UV4      -0.056500
     16 C16         -6.3140    -1.1110    -0.9310 ca         1 UV4      -0.110000
     17 C17         -7.0020    -0.3600     0.0050 ca         1 UV4      -0.072000
     18 C18         -6.3180     0.2990     1.0110 ca         1 UV4      -0.110000
     19 C19         -4.9440     0.2080     1.0890 ca         1 UV4      -0.056500
     20 H01         -0.5400    -0.0000    -0.9390 ha         1 UV4       0.141000
     21 H02          1.9230    -0.0000    -0.9390 ha         1 UV4       0.111000
     22 H03          3.1610     0.0000     1.1860 ha         1 UV4       0.120000
     23 H09         -0.5580     0.0010     3.3420 ha         1 UV4       0.124000
     24 HN11        -2.6030     0.4610     1.9280 hn         1 UV4       0.177500
     25 H15         -4.4010    -1.7950    -1.6020 ha         1 UV4       0.113500
     26 H16         -6.8560    -1.6250    -1.7150 ha         1 UV4       0.108000
     27 H17         -8.0810    -0.2870    -0.0500 ha         1 UV4       0.104000
     28 H18         -6.8630     0.8840     1.7420 ha         1 UV4       0.108000
     29 H19         -4.4090     0.7250     1.8770 ha         1 UV4       0.113500
@<TRIPOS>BOND
     1     1     2 ar  
     2     1    10 ar  
     3     1    20 1   
     4     2     3 ar  
     5     2    21 1   
     6     3     4 ar  
     7     3    22 1   
     8     4     5 1   
     9     4     9 ar  
    10     5     6 2   
    11     5     7 1   
    12     7     8 2   
    13     9    10 ar  
    14     9    23 1   
    15    10    11 1   
    16    11    12 1   
    17    11    24 1   
    18    12    13 2   
    19    12    14 1   
    20    14    15 ar  
    21    14    19 ar  
    22    15    16 ar  
    23    15    25 1   
    24    16    17 ar  
    25    16    26 1   
    26    17    18 ar  
    27    17    27 1   
    28    18    19 ar  
    29    18    28 1   
    30    19    29 1   
@<TRIPOS>SUBSTRUCTURE
     1 UV4         1 TEMP              0 ****  ****    0 ROOT
