@<TRIPOS>MOLECULE
molecule
   53    55     1     0     0
SMALL
bcc


@<TRIPOS>ATOM
      1 O01          0.0000     0.0000     0.0000 o          1 UV8      -0.822800
      2 C02          1.3470     0.0000     0.0000 c          1 UV8       0.875200
      3 O03          1.9560     0.0000     1.0530 o          1 UV8      -0.822800
      4 C04          2.0850    -0.0010    -1.2770 ca         1 UV8      -0.063600
      5 C05          1.3850     0.0050    -2.4880 ca         1 UV8      -0.103000
      6 C06          2.0640     0.0030    -3.6720 ca         1 UV8      -0.135000
      7 C07          3.4630    -0.0030    -3.6800 ca         1 UV8      -0.123800
      8 C08          4.1930    -0.0040    -4.9580 ce         1 UV8      -0.373200
      9 C09          3.7410    -0.7380    -5.9900 cf         1 UV8       0.009600
     10 C10          2.5760    -1.6740    -5.7940 c3         1 UV8      -0.104900
     11 C11          4.3840    -0.6270    -7.3110 ca         1 UV8      -0.022800
     12 C12          5.7090    -1.0340    -7.4850 ca         1 UV8      -0.098000
     13 C13          6.2970    -0.9230    -8.7250 ca         1 UV8      -0.135000
     14 C14          5.5860    -0.4120    -9.8050 ca         1 UV8      -0.073300
     15 C15          4.2770    -0.0110    -9.6410 ca         1 UV8      -0.067300
     16 C16          3.6730    -0.1210    -8.3980 ca         1 UV8      -0.118000
     17 C17          3.4490     0.5420   -10.7720 c3         1 UV8      -0.016700
     18 C18          2.4890    -0.5410   -11.2720 c3         1 UV8      -0.081600
     19 C19          2.6400     1.7390   -10.2690 c3         1 UV8      -0.081600
     20 C20          4.3460     0.9890   -11.9250 c3         1 UV8      -0.071400
     21 C21          5.3000    -0.1600   -12.2700 c3         1 UV8      -0.070400
     22 C22          6.3010    -0.3160   -11.1280 c3         1 UV8      -0.017700
     23 C23          7.1270    -1.5850   -11.3500 c3         1 UV8      -0.080600
     24 C24          7.2360     0.8960   -11.1100 c3         1 UV8      -0.080600
     25 C25          4.1690    -0.0080    -2.4700 ca         1 UV8      -0.020900
     26 Br           6.0600    -0.0160    -2.4770 br         1 UV8      -0.119100
     27 C27          3.4840    -0.0010    -1.2770 ca         1 UV8      -0.095000
     28 H2           0.3020     0.0100    -2.4860 ha         1 UV8       0.162000
     29 H3           1.5190     0.0080    -4.6080 ha         1 UV8       0.127000
     30 H4           4.3450    -0.7830    -4.2220 ha         1 UV8       0.321000
     31 H7           2.5910    -2.0620    -4.7830 hc         1 UV8       0.047367
     32 H8           1.6500    -1.1380    -5.9620 hc         1 UV8       0.047367
     33 H9           2.6510    -2.4950    -6.4970 hc         1 UV8       0.047367
     34 H10          6.2310    -1.5420    -6.6830 ha         1 UV8       0.137000
     35 H11          7.3240    -1.2380    -8.8610 ha         1 UV8       0.125000
     36 H12          2.6430     0.1880    -8.2710 ha         1 UV8       0.134000
     37 H13          2.2980    -0.3940   -12.3280 hc         1 UV8       0.036033
     38 H14          1.5570    -0.4770   -10.7240 hc         1 UV8       0.036033
     39 H15          2.9330    -1.5170   -11.1170 hc         1 UV8       0.036033
     40 H16          2.2630     2.3010   -11.1150 hc         1 UV8       0.036033
     41 H17          3.2750     2.3760    -9.6660 hc         1 UV8       0.036033
     42 H18          1.8090     1.3860    -9.6700 hc         1 UV8       0.036033
     43 H19          4.9180     1.8590   -11.6240 hc         1 UV8       0.042700
     44 H20          3.7360     1.2270   -12.7880 hc         1 UV8       0.042700
     45 H21          5.8370     0.0880   -13.1780 hc         1 UV8       0.043200
     46 H22          4.7290    -1.0760   -12.3660 hc         1 UV8       0.043200
     47 H23          7.4350    -1.6390   -12.3870 hc         1 UV8       0.034700
     48 H24          8.0030    -1.5610   -10.7130 hc         1 UV8       0.034700
     49 H25          6.5260    -2.4530   -11.1060 hc         1 UV8       0.034700
     50 H26          6.7800     1.6950   -10.5390 hc         1 UV8       0.034700
     51 H27          8.1780     0.6170   -10.6530 hc         1 UV8       0.034700
     52 H28          7.4120     1.2310   -12.1240 hc         1 UV8       0.034700
     53 H29          4.0260    -0.0050    -0.3400 ha         1 UV8       0.167000
@<TRIPOS>BOND
     1     3     2 1
     2     1     2 1
     3     2     4 1
     4     5     4 ar
     5     5     6 ar
     6     4    27 ar
     7    27    25 ar
     8     6     7 ar
     9    25     7 ar
    10    25    26 1
    11     7     8 1
    12     8     9 2
    13     9    10 1
    14     9    11 1
    15    11    12 ar
    16    11    16 ar
    17    12    13 ar
    18    16    15 ar
    19    19    17 1
    20    13    14 ar
    21    24    22 1
    22    15    14 ar
    23    15    17 1
    24    14    22 1
    25    17    20 1
    26    17    18 1
    27    22    21 1
    28    22    23 1
    29    20    21 1
    30     5    28 1
    31     6    29 1
    32     8    30 1
    33    10    31 1
    34    10    32 1
    35    10    33 1
    36    12    34 1
    37    13    35 1
    38    16    36 1
    39    18    37 1
    40    18    38 1
    41    18    39 1
    42    19    40 1
    43    19    41 1
    44    19    42 1
    45    20    43 1
    46    20    44 1
    47    21    45 1
    48    21    46 1
    49    23    47 1
    50    23    48 1
    51    23    49 1
    52    24    50 1
    53    24    51 1
    54    24    52 1
    55    27    53 1
@<TRIPOS>SUBSTRUCTURE
     1 UV8         1 TEMP              0 ****  ****    0 ROOT
