@<TRIPOS>MOLECULE
molecule
   36    37     1     0     0
SMALL
bcc


@<TRIPOS>ATOM
      1 OP           0.0000     0.0000     0.0000 o          1 UVP      -0.760500
      2 P            1.4800     0.0000     0.0000 p5         1 UVP       1.039100
      3 OP1          2.0180     0.0000     1.5180 o          1 UVP      -0.760500
      4 OP2          2.0170    -1.3150    -0.7590 o          1 UVP      -0.760500
      5 C6'          2.0850     1.4810    -0.8550 c2         1 UVP      -0.208600
      6 C5'          2.8370     1.3600    -1.9210 c2         1 UVP      -0.222200
      7 C4'          3.3400     2.5900    -2.6310 c3         1 UVP       0.146300
      8 O4'          2.9940     3.7650    -1.8790 os         1 UVP      -0.395600
      9 C3'          4.8780     2.5470    -2.7320 c3         1 UVP       0.094100
     10 O3'          5.2900     2.5640    -4.1000 oh         1 UVP      -0.596800
     11 C2'          5.3410     3.8350    -2.0100 c3         1 UVP       0.097100
     12 O2'          6.4180     4.4550    -2.7150 os         1 UVP      -0.400600
     13 CB'          7.7140     4.0330    -2.2840 c3         1 UVP       0.131700
     14 C1'          4.0670     4.7140    -2.0640 c3         1 UVP       0.218800
     15 N1           4.0740     5.7000    -0.9790 na         1 UVP      -0.166900
     16 C2           4.6320     6.8840    -1.1780 ca         1 UVP       0.758800
     17 O2           5.1850     7.1590    -2.3840 oh         1 UVP      -0.575300
     18 N3           4.6620     7.8060    -0.2300 nb         1 UVP      -0.797000
     19 C4           4.1270     7.5680     0.9620 ca         1 UVP       0.623600
     20 O4           4.1600     8.5140     1.9310 oh         1 UVP      -0.603300
     21 C5           3.5330     6.3310     1.2030 ca         1 UVP      -0.268300
     22 C6           3.5190     5.3970     0.1830 ca         1 UVP      -0.014300
     23 H3           1.8240     2.4650    -0.4850 ha         1 UVP       0.101000
     24 H5           3.0980     0.3760    -2.2910 ha         1 UVP       0.170000
     25 H7           2.9100     2.6510    -3.6240 h1         1 UVP       0.067700
     26 H8           5.2640     1.6710    -2.2250 h1         1 UVP       0.078700
     27 H9           5.4180     1.6790    -4.4010 ho         1 UVP       0.410000
     28 H10          5.6160     3.6210    -0.9840 h1         1 UVP       0.068700
     29 H11          7.7820     2.9540    -2.3460 h1         1 UVP       0.031700
     30 H12          7.8740     4.3460    -1.2590 h1         1 UVP       0.031700
     31 H13          8.4690     4.4790    -2.9200 h1         1 UVP       0.031700
     32 H14          3.9820     5.2000    -3.0290 h2         1 UVP       0.110700
     33 H16          3.0870     6.1080     2.1650 ha         1 UVP       0.186000
     34 H17          3.0650     4.4250     0.3370 h4         1 UVP       0.238000
     35 H4           5.0950     8.0790    -2.5690 ho         1 UVP       0.461000
     36 H6           5.0490     8.6360     2.2220 ho         1 UVP       0.434000
@<TRIPOS>BOND
     1     1     2 1
     2     3     2 1
     3     2     4 1
     4     2     5 1
     5     6     5 2
     6     6     7 1
     7     9    10 1
     8     9     7 1
     9     9    11 1
    10     7     8 1
    11    11    12 1
    12    11    14 1
    13    12    13 1
    14     8    14 1
    15    14    15 1
    16    22    15 1
    17    22    21 ar
    18    15    16 2
    19    21    19 ar
    20    16    17 1
    21    16    18 ar
    22    19    18 ar
    23    19    20 1
    24     5    23 1
    25     6    24 1
    26     7    25 1
    27     9    26 1
    28    10    27 1
    29    11    28 1
    30    13    29 1
    31    13    30 1
    32    13    31 1
    33    14    32 1
    34    21    33 1
    35    22    34 1
    36    17    35 1
    37    20    36 1
@<TRIPOS>SUBSTRUCTURE
     1 UVP         1 TEMP              0 ****  ****    0 ROOT
