@<TRIPOS>MOLECULE
molecule
   11    10     1     0     0
SMALL
bcc


@<TRIPOS>ATOM
      1 C1           0.0000     0.0000     0.0000 c          1 UVW       0.674100
      2 O1           1.2070     0.0000     0.0000 o          1 UVW      -0.550000
      3 C1M         -0.7530     0.0000     1.3060 c3         1 UVW      -0.166100
      4 O2          -0.6710     0.0020    -1.1620 os         1 UVW      -0.517500
      5 P            0.1320     0.0030    -2.5560 p5         1 UVW       1.149900
      6 O1P          0.9800    -1.2070    -2.6350 o          1 UVW      -0.891500
      7 O2P         -0.9140     0.0040    -3.7790 o          1 UVW      -0.891500
      8 O3P          1.0580     1.3160    -2.6400 o          1 UVW      -0.891500
      9 H1M1        -1.3490    -0.9020     1.3800 hc         1 UVW       0.027700
     10 H1M2        -0.0480     0.0350     2.1290 hc         1 UVW       0.027700
     11 H1M3        -1.4020     0.8660     1.3490 hc         1 UVW       0.027700
@<TRIPOS>BOND
     1     1     2 2
     2     1     3 1
     3     1     4 1
     4     3     9 1
     5     3    10 1
     6     3    11 1
     7     4     5 1
     8     5     6 1
     9     5     7 1
    10     5     8 1
@<TRIPOS>SUBSTRUCTURE
     1 UVW         1 TEMP              0 ****  ****    0 ROOT
