@<TRIPOS>MOLECULE
UW1
   50    52     1     0     0
SMALL
bcc


@<TRIPOS>ATOM
      1 CAA          0.0000     0.0000     0.0000 c3         1 UW1       0.002900
      2 CAM          1.5300     0.0000     0.0000 c3         1 UW1       0.200400
      3 OAP          2.0060     0.0000     1.3480 os         1 UW1      -0.294900
      4 CAR          3.3530     0.0010     1.5250 ca         1 UW1       0.190100
      5 CAK          3.8690     0.0000     2.8010 ca         1 UW1      -0.212300
      6 CAH          4.1970    -0.0050     0.4100 ca         1 UW1      -0.178000
      7 CAI          5.5480    -0.0050     0.5590 ca         1 UW1      -0.030000
      8 CAW          6.1090     0.0000     1.8490 ca         1 UW1      -0.199300
      9 CAL          7.5020    -0.0000     2.0340 ca         1 UW1       0.025000
     10 CAX          5.2620    -0.0000     2.9860 ca         1 UW1       0.422600
     11 NAN          5.7880    -0.0010     4.2160 nb         1 UW1      -0.554000
     12 CAJ          7.0830    -0.0010     4.4100 ca         1 UW1       0.395200
     13 CAS          7.9860     0.0040     3.3350 ca         1 UW1      -0.335800
     14 CAU          9.4470     0.0030     3.5870 cc         1 UW1       0.530800
     15 NAO         10.3620    -0.6020     2.8670 nd         1 UW1      -0.604800
     16 NAY         11.6220    -0.3680     3.4260 na         1 UW1       0.558400
     17 CAZ         12.8870    -0.8830     2.8970 c3         1 UW1      -0.078300
     18 CAC         13.5620    -1.7600     3.9530 c3         1 UW1      -0.007433
     19 CAD         12.6140    -1.7150     1.6420 c3         1 UW1      -0.007433
     20 CAB         13.8060     0.2880     2.5430 c3         1 UW1      -0.007433
     21 CAT         11.4960     0.4020     4.5240 cd         1 UW1      -0.033700
     22 NAF         12.5230     0.8380     5.3360 nv         1 UW1      -0.526200
     23 CAV         10.1410     0.6840     4.6870 cc         1 UW1      -0.551900
     24 CAQ          9.5330     1.4950     5.7450 c          1 UW1       0.431700
     25 OAG          9.1760     0.9720     6.7840 o          1 UW1      -0.413100
     26 NAE          9.3680     2.8210     5.5680 nz         1 UW1       0.192600
     27 H1          -0.3610    -0.8980     0.4860 hc         1 UW1       0.016700
     28 H2          -0.3610     0.0280    -1.0210 hc         1 UW1       0.016700
     29 H3          -0.3610     0.8700     0.5350 hc         1 UW1       0.016700
     30 H4           1.8910     0.8840    -0.5110 h1         1 UW1       0.001700
     31 H5           1.8910    -0.8850    -0.5110 h1         1 UW1       0.001700
     32 H6           3.2090    -0.1170     3.6520 ha         1 UW1       0.143000
     33 H7           3.7690    -0.0080    -0.5850 ha         1 UW1       0.131000
     34 H8           6.1920    -0.0090    -0.3130 ha         1 UW1       0.112000
     35 H9           8.1780     0.0030     1.1870 ha         1 UW1       0.124000
     36 H10          7.4660     0.0030     5.4230 h4         1 UW1      -0.024900
     37 H11         14.2600    -2.4330     3.4710 hc         1 UW1       0.024811
     38 H12         14.0930    -1.1320     4.6580 hc         1 UW1       0.024811
     39 H13         12.8100    -2.3360     4.4780 hc         1 UW1       0.024811
     40 H14         13.5480    -2.1090     1.2590 hc         1 UW1       0.024811
     41 H15         11.9510    -2.5350     1.8890 hc         1 UW1       0.024811
     42 H16         12.1510    -1.0900     0.8880 hc         1 UW1       0.024811
     43 H17         13.2180     1.0940     2.1210 hc         1 UW1       0.024811
     44 H18         14.5440    -0.0380     1.8200 hc         1 UW1       0.024811
     45 H19         14.3080     0.6360     3.4380 hc         1 UW1       0.024811
     46 H20         12.7710     0.3160     6.1530 hn         1 UW1       0.294800
     47 H21         12.9830     1.7050     5.1390 hn         1 UW1       0.294800
     48 H22          8.4300     3.0760     5.8060 hn         1 UW1       0.244800
     49 H23         10.0080     3.3180     6.1560 hn         1 UW1       0.244800
     50 HAE3         9.5440     3.0540     4.6110 hn         1 UW1       0.244800
@<TRIPOS>BOND
     1     1     2 1   
     2     1    27 1   
     3     1    28 1   
     4     1    29 1   
     5     2     3 1   
     6     2    30 1   
     7     2    31 1   
     8     3     4 1   
     9     4     5 ar  
    10     4     6 ar  
    11     5    10 ar  
    12     5    32 1   
    13     6     7 ar  
    14     6    33 1   
    15     7     8 ar  
    16     7    34 1   
    17     8     9 ar  
    18     8    10 ar  
    19     9    13 ar  
    20     9    35 1   
    21    10    11 ar  
    22    11    12 ar  
    23    12    13 ar  
    24    12    36 1   
    25    13    14 1   
    26    14    15 2   
    27    14    23 1   
    28    15    16 1   
    29    16    17 1   
    30    16    21 1   
    31    17    18 1   
    32    17    19 1   
    33    17    20 1   
    34    18    37 1   
    35    18    38 1   
    36    18    39 1   
    37    19    40 1   
    38    19    41 1   
    39    19    42 1   
    40    20    43 1   
    41    20    44 1   
    42    20    45 1   
    43    21    22 1   
    44    21    23 2   
    45    22    46 1   
    46    22    47 1   
    47    23    24 1   
    48    24    25 2   
    49    24    26 1   
    50    26    48 1   
    51    26    49 1   
    52    26    50 1   
@<TRIPOS>SUBSTRUCTURE
     1 UW1         1 TEMP              0 ****  ****    0 ROOT
