@<TRIPOS>MOLECULE
molecule
   50    52     1     0     0
SMALL
bcc


@<TRIPOS>ATOM
      1 CAA          0.0000     0.0000     0.0000 c3         1 UW1      -0.092100
      2 CAM          1.5300     0.0000     0.0000 c3         1 UW1       0.130400
      3 OAP          2.0060     0.0000     1.3480 os         1 UW1      -0.315900
      4 CAR          3.3530     0.0010     1.5250 ca         1 UW1       0.179100
      5 CAK          3.8690     0.0000     2.8010 ca         1 UW1      -0.224300
      6 CAH          4.1970    -0.0050     0.4100 ca         1 UW1      -0.192000
      7 CAI          5.5480    -0.0050     0.5590 ca         1 UW1      -0.067000
      8 CAW          6.1090     0.0000     1.8490 ca         1 UW1      -0.199300
      9 CAL          7.5020    -0.0000     2.0340 ca         1 UW1      -0.011000
     10 CAX          5.2620    -0.0000     2.9860 ca         1 UW1       0.464600
     11 NAN          5.7880    -0.0010     4.2160 nb         1 UW1      -0.669000
     12 CAJ          7.0830    -0.0010     4.4100 ca         1 UW1       0.430200
     13 CAS          7.9860     0.0040     3.3350 ca         1 UW1      -0.325800
     14 CAU          9.4470     0.0030     3.5870 cc         1 UW1       0.473800
     15 NAO         10.3620    -0.6020     2.8670 nd         1 UW1      -0.466800
     16 NAY         11.6220    -0.3680     3.4260 na         1 UW1       0.110400
     17 CAZ         12.8870    -0.8830     2.8970 c3         1 UW1       0.067700
     18 CAC         13.5620    -1.7600     3.9530 c3         1 UW1      -0.099433
     19 CAD         12.6140    -1.7150     1.6420 c3         1 UW1      -0.099433
     20 CAB         13.8060     0.2880     2.5430 c3         1 UW1      -0.099433
     21 CAT         11.4960     0.4020     4.5240 cd         1 UW1       0.258300
     22 NAF         12.5230     0.8380     5.3360 nv         1 UW1      -0.970200
     23 CAV         10.1410     0.6840     4.6870 cc         1 UW1      -0.508900
     24 CAQ          9.5330     1.4950     5.7450 c          1 UW1       0.570700
     25 OAG          9.1760     0.9720     6.7840 o          1 UW1      -0.405100
     26 NAE          9.3680     2.8210     5.5680 nz         1 UW1      -0.680400
     27 H1          -0.3610    -0.8980     0.4860 hc         1 UW1       0.055033
     28 H2          -0.3610     0.0280    -1.0210 hc         1 UW1       0.055033
     29 H3          -0.3610     0.8700     0.5350 hc         1 UW1       0.055033
     30 H4           1.8910     0.8840    -0.5110 h1         1 UW1       0.038200
     31 H5           1.8910    -0.8850    -0.5110 h1         1 UW1       0.038200
     32 H6           3.2090    -0.1170     3.6520 ha         1 UW1       0.175000
     33 H7           3.7690    -0.0080    -0.5850 ha         1 UW1       0.151000
     34 H8           6.1920    -0.0090    -0.3130 ha         1 UW1       0.144000
     35 H9           8.1780     0.0030     1.1870 ha         1 UW1       0.156000
     36 H10          7.4660     0.0030     5.4230 h4         1 UW1       0.019100
     37 H11         14.2600    -2.4330     3.4710 hc         1 UW1       0.057144
     38 H12         14.0930    -1.1320     4.6580 hc         1 UW1       0.057144
     39 H13         12.8100    -2.3360     4.4780 hc         1 UW1       0.057144
     40 H14         13.5480    -2.1090     1.2590 hc         1 UW1       0.057144
     41 H15         11.9510    -2.5350     1.8890 hc         1 UW1       0.057144
     42 H16         12.1510    -1.0900     0.8880 hc         1 UW1       0.057144
     43 H17         13.2180     1.0940     2.1210 hc         1 UW1       0.057144
     44 H18         14.5440    -0.0380     1.8200 hc         1 UW1       0.057144
     45 H19         14.3080     0.6360     3.4380 hc         1 UW1       0.057144
     46 H20         12.7710     0.3160     6.1530 hn         1 UW1       0.456300
     47 H21         12.9830     1.7050     5.1390 hn         1 UW1       0.456300
     48 H22          8.4300     3.0760     5.8060 hn         1 UW1       0.474800
     49 H23         10.0080     3.3180     6.1560 hn         1 UW1       0.474800
     50 HAE3         9.5440     3.0540     4.6110 hn         1 UW1       0.474800
@<TRIPOS>BOND
     1     6     7 ar
     2     6     4 ar
     3     7     8 ar
     4     3     4 1
     5     3     2 1
     6     4     5 ar
     7     1     2 1
     8     8     9 ar
     9     8    10 ar
    10     9    13 ar
    11     5    10 ar
    12    10    11 ar
    13    13    14 1
    14    13    12 ar
    15    25    24 2
    16    24    26 1
    17    24    23 1
    18    14    23 1
    19    14    15 2
    20    11    12 ar
    21    23    21 2
    22    20    17 1
    23    15    16 1
    24    21    16 1
    25    21    22 1
    26    16    17 1
    27    17    19 1
    28    17    18 1
    29     1    27 1
    30     1    28 1
    31     1    29 1
    32     2    30 1
    33     2    31 1
    34     5    32 1
    35     6    33 1
    36     7    34 1
    37     9    35 1
    38    12    36 1
    39    18    37 1
    40    18    38 1
    41    18    39 1
    42    19    40 1
    43    19    41 1
    44    19    42 1
    45    20    43 1
    46    20    44 1
    47    20    45 1
    48    22    46 1
    49    22    47 1
    50    26    48 1
    51    26    49 1
    52    50    26 1
@<TRIPOS>SUBSTRUCTURE
     1 UW1         1 TEMP              0 ****  ****    0 ROOT
