@<TRIPOS>MOLECULE
molecule
   51    55     1     0     0
SMALL
bcc


@<TRIPOS>ATOM
      1 O            0.0000     0.0000     0.0000 oh         1 UW2      -0.588800
      2 C6           1.4290     0.0000     0.0000 c3         1 UW2       0.124800
      3 C7           1.9400     0.0000     1.4420 c3         1 UW2      -0.120100
      4 C8           1.9390    -1.2490    -0.7210 c3         1 UW2      -0.120100
      5 C5           1.9390     1.2490    -0.7210 c3         1 UW2       0.098300
      6 N3           1.4500     1.2490    -2.1030 na         1 UW2      -0.024800
      7 C2           0.2790     1.8050    -2.5230 ca         1 UW2       0.532800
      8 N1          -0.7120     2.4610    -1.9210 nb         1 UW2      -0.762000
      9 C1          -1.7480     2.8920    -2.6100 ca         1 UW2       0.728900
     10 N           -1.8650     2.7060    -3.9130 nb         1 UW2      -0.802000
     11 N2           2.1170     0.6830    -3.1950 nc         1 UW2      -0.495100
     12 C4           1.4090     0.8560    -4.2870 cd         1 UW2       0.446500
     13 C3           0.1960     1.5830    -3.9110 ca         1 UW2      -0.499500
     14 C           -0.9280     2.0620    -4.6030 ca         1 UW2       0.783200
     15 N5          -1.0550     1.8750    -5.9650 nv         1 UW2      -1.073500
     16 C9           1.7720     0.3980    -5.6490 ca         1 UW2      -0.109900
     17 C14          1.6180     1.2540    -6.7260 ca         1 UW2      -0.059000
     18 C13          1.9630     0.8150    -8.0100 ca         1 UW2      -0.199300
     19 C15          1.8220     1.6570    -9.1330 ca         1 UW2      -0.049000
     20 C16          2.1760     1.1680   -10.3550 ca         1 UW2      -0.258300
     21 C17          2.6640    -0.1390   -10.4690 ca         1 UW2       0.679600
     22 O1           3.0120    -0.6110   -11.6920 os         1 UW2      -0.406100
     23 C18          3.5050    -1.9500   -11.7530 cx         1 UW2       0.073100
     24 C20          4.6570    -2.2350   -12.7190 cx         1 UW2      -0.140900
     25 C19          3.2480    -2.7390   -13.0400 cx         1 UW2      -0.140900
     26 N4           2.7950    -0.9210    -9.4190 nb         1 UW2      -0.777000
     27 C12          2.4640    -0.4990    -8.1920 ca         1 UW2       0.470600
     28 C11          2.6080    -1.3430    -7.0780 ca         1 UW2      -0.188300
     29 C10          2.2740    -0.8990    -5.8380 ca         1 UW2      -0.082000
     30 H1          -0.3140    -0.5590     0.6920 ho         1 UW2       0.404000
     31 H2           1.5420     0.8610     1.9660 hc         1 UW2       0.046700
     32 H3           1.6170    -0.9070     1.9400 hc         1 UW2       0.046700
     33 H4           3.0220     0.0460     1.4420 hc         1 UW2       0.046700
     34 H5           2.9550    -1.0820    -1.0580 hc         1 UW2       0.046700
     35 H6           1.3060    -1.4570    -1.5750 hc         1 UW2       0.046700
     36 H7           1.9180    -2.0920    -0.0420 hc         1 UW2       0.046700
     37 H8           3.0220     1.2490    -0.7210 h1         1 UW2       0.077200
     38 H9           1.5780     2.1340    -0.2100 h1         1 UW2       0.077200
     39 H10         -2.5350     3.4220    -2.0880 h5         1 UW2       0.060100
     40 H11         -0.9270     2.6470    -6.5890 hn         1 UW2       0.442800
     41 H12         -1.3450     0.9870    -6.3230 hn         1 UW2       0.442800
     42 H13          1.3670     2.2950    -6.5590 ha         1 UW2       0.142000
     43 H14          1.4420     2.6660    -9.0270 ha         1 UW2       0.144000
     44 H15          2.1440     1.8120   -11.2260 ha         1 UW2       0.151000
     45 H16          3.5130    -2.5470   -10.8490 h1         1 UW2       0.118700
     46 H17          5.3620    -2.9920   -12.3960 hc         1 UW2       0.081700
     47 H18          4.9960    -1.3900   -13.3060 hc         1 UW2       0.081700
     48 H19          2.7260    -2.2010   -13.8220 hc         1 UW2       0.081700
     49 H20          3.0920    -3.8030   -12.9120 hc         1 UW2       0.081700
     50 H21          2.9950    -2.3470    -7.2070 ha         1 UW2       0.150000
     51 H22          2.3970    -1.5540    -4.9840 ha         1 UW2       0.145000
@<TRIPOS>BOND
     1    20    19 ar
     2    20    21 ar
     3    19    18 ar
     4    22    21 1
     5    22    23 1
     6    21    26 ar
     7    24    23 1
     8    24    25 1
     9    23    25 1
    10    18    17 ar
    11    18    27 ar
    12    17    16 ar
    13    26    27 ar
    14    27    28 ar
    15    16    12 1
    16    16    29 ar
    17    15    14 1
    18    28    29 ar
    19    14    13 ar
    20    14    10 ar
    21    12    13 1
    22    12    11 2
    23    13     7 ar
    24    10     9 ar
    25    11     6 1
    26     9     8 ar
    27     7     6 1
    28     7     8 ar
    29     6     5 1
    30     5     2 1
    31     3     2 1
    32     2     4 1
    33     2     1 1
    34     1    30 1
    35     3    31 1
    36     3    32 1
    37     3    33 1
    38     4    34 1
    39     4    35 1
    40     4    36 1
    41     5    37 1
    42     5    38 1
    43     9    39 1
    44    15    40 1
    45    15    41 1
    46    17    42 1
    47    19    43 1
    48    20    44 1
    49    23    45 1
    50    24    46 1
    51    24    47 1
    52    25    48 1
    53    25    49 1
    54    28    50 1
    55    29    51 1
@<TRIPOS>SUBSTRUCTURE
     1 UW2         1 TEMP              0 ****  ****    0 ROOT
