@<TRIPOS>MOLECULE
UW2
   51    55     1     0     0
SMALL
bcc


@<TRIPOS>ATOM
      1 O            0.0000     0.0000     0.0000 oh         1 UW2      -0.578800
      2 C6           1.4290     0.0000     0.0000 c3         1 UW2       0.141800
      3 C7           1.9400     0.0000     1.4420 c3         1 UW2      -0.034100
      4 C8           1.9390    -1.2490    -0.7210 c3         1 UW2      -0.034100
      5 C5           1.9390     1.2490    -0.7210 c3         1 UW2      -0.001700
      6 N3           1.4500     1.2490    -2.1030 na         1 UW2       0.386200
      7 C2           0.2790     1.8050    -2.5230 ca         1 UW2       0.335800
      8 N1          -0.7120     2.4610    -1.9210 nb         1 UW2      -0.635000
      9 C1          -1.7480     2.8920    -2.6100 ca         1 UW2       0.672900
     10 N           -1.8650     2.7060    -3.9130 nb         1 UW2      -0.696000
     11 N2           2.1170     0.6830    -3.1950 nc         1 UW2      -0.625100
     12 C4           1.4090     0.8560    -4.2870 cd         1 UW2       0.483500
     13 C3           0.1960     1.5830    -3.9110 ca         1 UW2      -0.509500
     14 C           -0.9280     2.0620    -4.6030 ca         1 UW2       0.617200
     15 N5          -1.0550     1.8750    -5.9650 nv         1 UW2      -0.646500
     16 C9           1.7720     0.3980    -5.6490 ca         1 UW2      -0.109900
     17 C14          1.6180     1.2540    -6.7260 ca         1 UW2      -0.050000
     18 C13          1.9630     0.8150    -8.0100 ca         1 UW2      -0.193300
     19 C15          1.8220     1.6570    -9.1330 ca         1 UW2      -0.019000
     20 C16          2.1760     1.1680   -10.3550 ca         1 UW2      -0.238300
     21 C17          2.6640    -0.1390   -10.4690 ca         1 UW2       0.638600
     22 O1           3.0120    -0.6110   -11.6920 os         1 UW2      -0.388100
     23 C18          3.5050    -1.9500   -11.7530 cx         1 UW2       0.100100
     24 C20          4.6570    -2.2350   -12.7190 cx         1 UW2      -0.089400
     25 C19          3.2480    -2.7390   -13.0400 cx         1 UW2      -0.089400
     26 N4           2.7950    -0.9210    -9.4190 nb         1 UW2      -0.666000
     27 C12          2.4640    -0.4990    -8.1920 ca         1 UW2       0.424600
     28 C11          2.6080    -1.3430    -7.0780 ca         1 UW2      -0.164300
     29 C10          2.2740    -0.8990    -5.8380 ca         1 UW2      -0.055000
     30 H1          -0.3140    -0.5590     0.6920 ho         1 UW2       0.397000
     31 H2           1.5420     0.8610     1.9660 hc         1 UW2       0.016533
     32 H3           1.6170    -0.9070     1.9400 hc         1 UW2       0.016533
     33 H4           3.0220     0.0460     1.4420 hc         1 UW2       0.016533
     34 H5           2.9550    -1.0820    -1.0580 hc         1 UW2       0.016533
     35 H6           1.3060    -1.4570    -1.5750 hc         1 UW2       0.016533
     36 H7           1.9180    -2.0920    -0.0420 hc         1 UW2       0.016533
     37 H8           3.0220     1.2490    -0.7210 h1         1 UW2       0.046700
     38 H9           1.5780     2.1340    -0.2100 h1         1 UW2       0.046700
     39 H10         -2.5350     3.4220    -2.0880 h5         1 UW2      -0.003900
     40 H11         -0.9270     2.6470    -6.5890 hn         1 UW2       0.283800
     41 H12         -1.3450     0.9870    -6.3230 hn         1 UW2       0.283800
     42 H13          1.3670     2.2950    -6.5590 ha         1 UW2       0.116000
     43 H14          1.4420     2.6660    -9.0270 ha         1 UW2       0.111000
     44 H15          2.1440     1.8120   -11.2260 ha         1 UW2       0.124000
     45 H16          3.5130    -2.5470   -10.8490 h1         1 UW2       0.083700
     46 H17          5.3620    -2.9920   -12.3960 hc         1 UW2       0.049700
     47 H18          4.9960    -1.3900   -13.3060 hc         1 UW2       0.049700
     48 H19          2.7260    -2.2010   -13.8220 hc         1 UW2       0.049700
     49 H20          3.0920    -3.8030   -12.9120 hc         1 UW2       0.049700
     50 H21          2.9950    -2.3470    -7.2070 ha         1 UW2       0.119000
     51 H22          2.3970    -1.5540    -4.9840 ha         1 UW2       0.114000
@<TRIPOS>BOND
     1     1     2 1   
     2     1    30 1   
     3     2     3 1   
     4     2     4 1   
     5     2     5 1   
     6     3    31 1   
     7     3    32 1   
     8     3    33 1   
     9     4    34 1   
    10     4    35 1   
    11     4    36 1   
    12     5     6 1   
    13     5    37 1   
    14     5    38 1   
    15     6     7 1   
    16     6    11 1   
    17     7     8 ar  
    18     7    13 ar  
    19     8     9 ar  
    20     9    10 ar  
    21     9    39 1   
    22    10    14 ar  
    23    11    12 2   
    24    12    13 1   
    25    12    16 1   
    26    13    14 ar  
    27    14    15 1   
    28    15    40 1   
    29    15    41 1   
    30    16    17 ar  
    31    16    29 ar  
    32    17    18 ar  
    33    17    42 1   
    34    18    19 ar  
    35    18    27 ar  
    36    19    20 ar  
    37    19    43 1   
    38    20    21 ar  
    39    20    44 1   
    40    21    22 1   
    41    21    26 ar  
    42    22    23 1   
    43    23    24 1   
    44    23    25 1   
    45    23    45 1   
    46    24    25 1   
    47    24    46 1   
    48    24    47 1   
    49    25    48 1   
    50    25    49 1   
    51    26    27 ar  
    52    27    28 ar  
    53    28    29 ar  
    54    28    50 1   
    55    29    51 1   
@<TRIPOS>SUBSTRUCTURE
     1 UW2         1 TEMP              0 ****  ****    0 ROOT
