@<TRIPOS>MOLECULE
UW3
   58    62     1     0     0
SMALL
bcc


@<TRIPOS>ATOM
      1 CAM          0.0000     0.0000     0.0000 cy         1 UW3      -0.052400
      2 CAN          1.5370     0.0000     0.0000 cy         1 UW3      -0.035400
      3 CAO          1.4580     0.0000     1.5360 cy         1 UW3      -0.052400
      4 CAL          0.0750     0.6580     1.3870 cy         1 UW3       0.128100
      5 OAK          0.1220     2.0860     1.3400 os         1 UW3      -0.268900
      6 CAC         -1.0150     2.7520     1.6680 ca         1 UW3       0.195100
      7 CAD         -2.1720     2.0460     1.9000 ca         1 UW3      -0.289300
      8 CAB         -0.9940     4.1470     1.7680 ca         1 UW3      -0.109000
      9 CAA         -2.1180     4.8380     2.0950 ca         1 UW3      -0.040000
     10 CAF         -3.3200     4.1480     2.3330 ca         1 UW3      -0.196300
     11 CAJ         -4.4980     4.8350     2.6710 ca         1 UW3       0.024000
     12 CAE         -3.3510     2.7330     2.2380 ca         1 UW3       0.428600
     13 NAG         -4.4880     2.0690     2.4680 nb         1 UW3      -0.561000
     14 CAH         -5.5960     2.6900     2.7850 ca         1 UW3       0.395200
     15 CAI         -5.6480     4.0890     2.8920 ca         1 UW3      -0.334800
     16 CAP         -6.9170     4.7630     3.2530 cc         1 UW3       0.532800
     17 NAT         -7.0450     5.8440     3.9870 nd         1 UW3      -0.602800
     18 CAQ         -8.2680     4.3530     2.8500 cc         1 UW3      -0.562900
     19 CAW         -8.6250     3.2010     2.0170 c          1 UW3       0.434700
     20 OAY         -8.8480     2.1220     2.5330 o          1 UW3      -0.417100
     21 NAX         -8.7070     3.3370     0.6780 nz         1 UW3       0.193600
     22 CAR         -9.1400     5.2770     3.4180 cd         1 UW3      -0.036700
     23 NAV        -10.5150     5.2780     3.3000 nv         1 UW3      -0.488200
     24 NAS         -8.3980     6.1710     4.1000 na         1 UW3       0.533400
     25 CAU         -8.9300     7.3150     4.8440 c3         1 UW3      -0.057000
     26 CAZ         -8.3610     8.6110     4.2640 c3         1 UW3      -0.034900
     27 CBA         -8.9160     9.8060     5.0410 c3         1 UW3      -0.017900
     28 CBB         -8.5160     9.6870     6.5130 c3         1 UW3      -0.028400
     29 CBC         -9.0850     8.3910     7.0930 c3         1 UW3      -0.017900
     30 CBD         -8.5290     7.1970     6.3160 c3         1 UW3      -0.034900
     31 H1          -0.4230    -0.9970     0.0270 hc         1 UW3       0.036200
     32 H2          -0.4230     0.6510    -0.7550 hc         1 UW3       0.036200
     33 H3           1.9610    -0.9120    -0.4030 hc         1 UW3       0.032200
     34 H4           1.9610     0.9120    -0.4030 hc         1 UW3       0.032200
     35 H5           1.4100    -0.9970     1.9570 hc         1 UW3       0.036200
     36 H6           2.1900     0.6520     1.9970 hc         1 UW3       0.036200
     37 H7          -0.6550     0.2590     2.0800 h1         1 UW3       0.034700
     38 H8          -2.1500     0.9630     1.9310 ha         1 UW3       0.151000
     39 H9          -0.0720     4.6840     1.5810 ha         1 UW3       0.127000
     40 H10         -2.0890     5.9180     2.1690 ha         1 UW3       0.115000
     41 H11         -4.5110     5.9160     2.7470 ha         1 UW3       0.125000
     42 H12         -6.4960     2.1120     2.9590 h4         1 UW3      -0.025900
     43 H13         -9.6690     3.3410     0.4020 hn         1 UW3       0.245467
     44 H14         -8.2360     2.5720     0.2360 hn         1 UW3       0.245467
     45 H15        -11.0460     4.4990     3.6360 hn         1 UW3       0.292800
     46 H16        -10.9840     6.0840     2.9360 hn         1 UW3       0.292800
     47 H17        -10.0100     7.3310     4.7670 h1         1 UW3       0.047700
     48 H18         -7.2810     8.5990     4.3470 hc         1 UW3       0.030950
     49 H19         -8.6470     8.6950     3.2230 hc         1 UW3       0.030950
     50 H20         -8.5110    10.7230     4.6310 hc         1 UW3       0.022950
     51 H21         -9.9970     9.8150     4.9620 hc         1 UW3       0.022950
     52 H22         -8.9120    10.5320     7.0630 hc         1 UW3       0.026700
     53 H23         -7.4360     9.6730     6.5920 hc         1 UW3       0.026700
     54 H24         -8.7990     8.3080     8.1350 hc         1 UW3       0.022950
     55 H25        -10.1650     8.4040     7.0110 hc         1 UW3       0.022950
     56 H26         -8.9350     6.2800     6.7270 hc         1 UW3       0.030950
     57 H27         -7.4490     7.1870     6.3950 hc         1 UW3       0.030950
     58 HAX3        -8.2580     4.1870     0.4010 hn         1 UW3       0.245467
@<TRIPOS>BOND
     1     1     2 1   
     2     1     4 1   
     3     1    31 1   
     4     1    32 1   
     5     2     3 1   
     6     2    33 1   
     7     2    34 1   
     8     3     4 1   
     9     3    35 1   
    10     3    36 1   
    11     4     5 1   
    12     4    37 1   
    13     5     6 1   
    14     6     7 ar  
    15     6     8 ar  
    16     7    12 ar  
    17     7    38 1   
    18     8     9 ar  
    19     8    39 1   
    20     9    10 ar  
    21     9    40 1   
    22    10    11 ar  
    23    10    12 ar  
    24    11    15 ar  
    25    11    41 1   
    26    12    13 ar  
    27    13    14 ar  
    28    14    15 ar  
    29    14    42 1   
    30    15    16 1   
    31    16    17 2   
    32    16    18 1   
    33    17    24 1   
    34    18    19 1   
    35    18    22 2   
    36    19    20 2   
    37    19    21 1   
    38    21    43 1   
    39    21    44 1   
    40    21    58 1   
    41    22    23 1   
    42    22    24 1   
    43    23    45 1   
    44    23    46 1   
    45    24    25 1   
    46    25    26 1   
    47    25    30 1   
    48    25    47 1   
    49    26    27 1   
    50    26    48 1   
    51    26    49 1   
    52    27    28 1   
    53    27    50 1   
    54    27    51 1   
    55    28    29 1   
    56    28    52 1   
    57    28    53 1   
    58    29    30 1   
    59    29    54 1   
    60    29    55 1   
    61    30    56 1   
    62    30    57 1   
@<TRIPOS>SUBSTRUCTURE
     1 UW3         1 TEMP              0 ****  ****    0 ROOT
