@<TRIPOS>MOLECULE
UW4
   54    57     1     0     0
SMALL
bcc


@<TRIPOS>ATOM
      1 O1           0.0000     0.0000     0.0000 o          1 UW4      -0.413100
      2 C19          1.2170     0.0000     0.0000 c          1 UW4       0.433700
      3 N3           1.8900     0.0000     1.1680 nz         1 UW4       0.178600
      4 C18          1.9500    -0.0060    -1.2690 cc         1 UW4      -0.543900
      5 C20          2.3690     1.1050    -1.9970 cd         1 UW4      -0.036700
      6 N4           2.1690     2.4270    -1.6560 nv         1 UW4      -0.526200
      7 N            3.0050     0.6540    -3.0960 na         1 UW4       0.557400
      8 C1           3.6020     1.5000    -4.1330 c3         1 UW4      -0.077300
      9 C3           4.6810     2.3870    -3.5070 c3         1 UW4      -0.007433
     10 C2           4.2290     0.6180    -5.2130 c3         1 UW4      -0.007433
     11 C            2.5180     2.3810    -4.7580 c3         1 UW4      -0.007433
     12 C4           2.3970    -1.1830    -2.0230 cc         1 UW4       0.522800
     13 N1           3.0100    -0.7430    -3.0980 nd         1 UW4      -0.604800
     14 C5           2.1900    -2.6000    -1.6460 ca         1 UW4      -0.193500
     15 C10          2.2180    -2.9730    -0.2930 ca         1 UW4      -0.101000
     16 C9           2.0320    -4.2670     0.0790 ca         1 UW4      -0.136300
     17 C8           1.8070    -5.2550    -0.8960 ca         1 UW4       0.438600
     18 N2           1.6220    -6.5330    -0.5450 nb         1 UW4      -0.676000
     19 C11          1.4110    -7.4660    -1.4480 ca         1 UW4       0.666600
     20 C16          1.3710    -7.1680    -2.8160 ca         1 UW4      -0.218300
     21 C17          1.5510    -5.8840    -3.2360 ca         1 UW4      -0.010000
     22 C7           1.7770    -4.8880    -2.2640 ca         1 UW4      -0.198300
     23 C6           1.9660    -3.5490    -2.6290 ca         1 UW4       0.020000
     24 O            1.2300    -8.7470    -1.0450 os         1 UW4      -0.389100
     25 C12          1.2810    -8.9980     0.3610 cy         1 UW4       0.136100
     26 C15         -0.0700    -9.4230     0.9620 cy         1 UW4      -0.052900
     27 C14          0.3290   -10.8710     0.6340 cy         1 UW4      -0.037400
     28 C13          1.7920   -10.4050     0.7180 cy         1 UW4      -0.052900
     29 H1           1.8050     0.8970     1.6030 hn         1 UW4       0.247800
     30 H2           2.8570    -0.1960     0.9960 hn         1 UW4       0.247800
     31 H3           1.3200     2.8880    -1.9180 hn         1 UW4       0.294800
     32 H4           2.8510     2.9100    -1.1060 hn         1 UW4       0.294800
     33 H5           4.2160     3.2470    -3.0400 hc         1 UW4       0.024589
     34 H6           5.3660     2.7200    -4.2780 hc         1 UW4       0.024589
     35 H7           5.2260     1.8210    -2.7610 hc         1 UW4       0.024589
     36 H8           4.6840     1.2440    -5.9710 hc         1 UW4       0.024589
     37 H9           4.9860    -0.0160    -4.7670 hc         1 UW4       0.024589
     38 H10          3.4620     0.0020    -5.6660 hc         1 UW4       0.024589
     39 H11          2.3410     3.2410    -4.1240 hc         1 UW4       0.024589
     40 H12          2.8440     2.7150    -5.7360 hc         1 UW4       0.024589
     41 H13          1.6030     1.8110    -4.8580 hc         1 UW4       0.024589
     42 H14          2.3980    -2.2200     0.4650 ha         1 UW4       0.034000
     43 H15          2.0570    -4.5370     1.1280 ha         1 UW4       0.119000
     44 H16          1.1950    -7.9560    -3.5380 ha         1 UW4       0.136000
     45 H17          1.5230    -5.6360    -4.2900 ha         1 UW4       0.121000
     46 H18          1.8030    -3.2390    -3.6540 ha         1 UW4       0.124000
     47 H19          1.7680    -8.2190     0.9350 h1         1 UW4       0.048700
     48 H20         -0.9180    -9.0760     0.3840 hc         1 UW4       0.034700
     49 H21         -0.1390    -9.2330     2.0260 hc         1 UW4       0.034700
     50 H22          0.0380   -11.1750    -0.3650 hc         1 UW4       0.030700
     51 H23          0.0620   -11.5720     1.4160 hc         1 UW4       0.030700
     52 H24          2.2000   -10.4670     1.7200 hc         1 UW4       0.034700
     53 H25          2.4200   -10.8360    -0.0530 hc         1 UW4       0.034700
     54 H33          1.5150    -0.7060     1.7700 hn         1 UW4       0.247800
@<TRIPOS>BOND
     1     1     2 2   
     2     2     3 1   
     3     2     4 1   
     4     3    29 1   
     5     3    30 1   
     6     3    54 1   
     7     4     5 2   
     8     4    12 1   
     9     5     6 1   
    10     5     7 1   
    11     6    31 1   
    12     6    32 1   
    13     7     8 1   
    14     7    13 1   
    15     8     9 1   
    16     8    10 1   
    17     8    11 1   
    18     9    33 1   
    19     9    34 1   
    20     9    35 1   
    21    10    36 1   
    22    10    37 1   
    23    10    38 1   
    24    11    39 1   
    25    11    40 1   
    26    11    41 1   
    27    12    13 2   
    28    12    14 1   
    29    14    15 ar  
    30    14    23 ar  
    31    15    16 ar  
    32    15    42 1   
    33    16    17 ar  
    34    16    43 1   
    35    17    18 ar  
    36    17    22 ar  
    37    18    19 ar  
    38    19    20 ar  
    39    19    24 1   
    40    20    21 ar  
    41    20    44 1   
    42    21    22 ar  
    43    21    45 1   
    44    22    23 ar  
    45    23    46 1   
    46    24    25 1   
    47    25    26 1   
    48    25    28 1   
    49    25    47 1   
    50    26    27 1   
    51    26    48 1   
    52    26    49 1   
    53    27    28 1   
    54    27    50 1   
    55    27    51 1   
    56    28    52 1   
    57    28    53 1   
@<TRIPOS>SUBSTRUCTURE
     1 UW4         1 TEMP              0 ****  ****    0 ROOT
