@<TRIPOS>MOLECULE
UW5
   52    56     1     0     0
SMALL
bcc


@<TRIPOS>ATOM
      1 O            0.0000     0.0000     0.0000 oh         1 UW5      -0.577800
      2 C4           1.4290     0.0000     0.0000 c3         1 UW5       0.144800
      3 C5           1.9400     0.0000     1.4420 c3         1 UW5      -0.038100
      4 C6           1.9400    -1.2500    -0.7210 c3         1 UW5      -0.038100
      5 C3           1.9390     1.2480    -0.7230 c3         1 UW5      -0.005700
      6 N1           1.5520     2.4420     0.0330 na         1 UW5       0.390200
      7 C2           2.2960     3.0270     1.0150 ca         1 UW5       0.315800
      8 N3           3.4780     2.7680     1.5710 nb         1 UW5      -0.661000
      9 C21          3.9520     3.5340     2.5290 ca         1 UW5       0.675900
     10 N4           3.2990     4.5870     2.9900 nb         1 UW5      -0.698000
     11 C            2.1110     4.9270     2.5000 ca         1 UW5       0.622200
     12 N            1.4330     6.0280     2.9850 nv         1 UW5      -0.644500
     13 N2           0.3660     3.1610    -0.1440 nc         1 UW5      -0.596100
     14 C7           0.3290     4.1740     0.6900 cd         1 UW5       0.477500
     15 C1           1.5640     4.1390     1.4740 ca         1 UW5      -0.504500
     16 C8          -0.7610     5.1710     0.8120 ca         1 UW5      -0.107900
     17 C20         -0.4520     6.5170     0.9010 ca         1 UW5      -0.061000
     18 C19         -1.4870     7.4560     1.0170 ca         1 UW5      -0.078000
     19 C11         -2.8340     7.0110     1.0390 ca         1 UW5       0.012000
     20 C10         -3.1140     5.6360     0.9450 ca         1 UW5      -0.105000
     21 C9          -2.0980     4.7420     0.8290 ca         1 UW5      -0.062000
     22 C18         -1.2120     8.8330     1.1110 ca         1 UW5      -0.044000
     23 C17         -2.2360     9.7200     1.2230 ca         1 UW5      -0.193000
     24 C13         -3.5650     9.2830     1.2450 ca         1 UW5       0.153100
     25 C12         -3.8690     7.9550     1.1550 ca         1 UW5      -0.149000
     26 O1          -4.5670    10.1930     1.3570 os         1 UW5      -0.261900
     27 C14         -4.1990    11.5730     1.3140 cx         1 UW5       0.082100
     28 C16         -4.8210    12.5050     2.3560 cx         1 UW5      -0.084400
     29 C15         -5.2730    12.5790     0.8960 cx         1 UW5      -0.084400
     30 H1          -0.3140    -0.8890    -0.0090 ho         1 UW5       0.396000
     31 H2           2.9980     0.2340     1.4500 hc         1 UW5       0.018033
     32 H3           1.4010     0.7440     2.0160 hc         1 UW5       0.018033
     33 H4           1.7830    -0.9780     1.8800 hc         1 UW5       0.018033
     34 H5           1.5600    -1.2630    -1.7350 hc         1 UW5       0.018033
     35 H6           3.0230    -1.2390    -0.7410 hc         1 UW5       0.018033
     36 H7           1.5980    -2.1340    -0.1960 hc         1 UW5       0.018033
     37 H8           1.5070     1.2930    -1.7150 h1         1 UW5       0.047200
     38 H9           3.0190     1.2050    -0.8010 h1         1 UW5       0.047200
     39 H10          4.9170     3.2930     2.9580 h5         1 UW5      -0.003900
     40 H11          0.6730     5.9050     3.6250 hn         1 UW5       0.285800
     41 H12          1.7460     6.9500     2.7520 hn         1 UW5       0.285800
     42 H13          0.5650     6.8500     0.7380 ha         1 UW5       0.114000
     43 H14         -4.1410     5.2900     0.9570 ha         1 UW5       0.110000
     44 H15         -2.3220     3.6850     0.7500 ha         1 UW5       0.117000
     45 H16         -0.1880     9.1850     1.0950 ha         1 UW5       0.103000
     46 H17         -2.0200    10.7790     1.2960 ha         1 UW5       0.122000
     47 H18         -4.9020     7.6300     1.1730 ha         1 UW5       0.123000
     48 H19         -3.1910    11.8360     1.0150 h1         1 UW5       0.064700
     49 H20         -4.1890    13.3190     2.6910 hc         1 UW5       0.051200
     50 H21         -5.5210    12.0410     3.0390 hc         1 UW5       0.051200
     51 H22         -4.9180    13.4380     0.3400 hc         1 UW5       0.051200
     52 H23         -6.2500    12.1600     0.6880 hc         1 UW5       0.051200
@<TRIPOS>BOND
     1     1     2 1   
     2     1    30 1   
     3     2     3 1   
     4     2     4 1   
     5     2     5 1   
     6     3    31 1   
     7     3    32 1   
     8     3    33 1   
     9     4    34 1   
    10     4    35 1   
    11     4    36 1   
    12     5     6 1   
    13     5    37 1   
    14     5    38 1   
    15     6     7 1   
    16     6    13 1   
    17     7     8 ar  
    18     7    15 ar  
    19     8     9 ar  
    20     9    10 ar  
    21     9    39 1   
    22    10    11 ar  
    23    11    12 1   
    24    11    15 ar  
    25    12    40 1   
    26    12    41 1   
    27    13    14 2   
    28    14    15 1   
    29    14    16 1   
    30    16    17 ar  
    31    16    21 ar  
    32    17    18 ar  
    33    17    42 1   
    34    18    19 ar  
    35    18    22 ar  
    36    19    20 ar  
    37    19    25 ar  
    38    20    21 ar  
    39    20    43 1   
    40    21    44 1   
    41    22    23 ar  
    42    22    45 1   
    43    23    24 ar  
    44    23    46 1   
    45    24    25 ar  
    46    24    26 1   
    47    25    47 1   
    48    26    27 1   
    49    27    28 1   
    50    27    29 1   
    51    27    48 1   
    52    28    29 1   
    53    28    49 1   
    54    28    50 1   
    55    29    51 1   
    56    29    52 1   
@<TRIPOS>SUBSTRUCTURE
     1 UW5         1 TEMP              0 ****  ****    0 ROOT
