@<TRIPOS>MOLECULE
molecule
   52    56     1     0     0
SMALL
bcc


@<TRIPOS>ATOM
      1 O            0.0000     0.0000     0.0000 oh         1 UW5      -0.590800
      2 C4           1.4290     0.0000     0.0000 c3         1 UW5       0.125800
      3 C5           1.9400     0.0000     1.4420 c3         1 UW5      -0.121100
      4 C6           1.9400    -1.2500    -0.7210 c3         1 UW5      -0.121100
      5 C3           1.9390     1.2480    -0.7230 c3         1 UW5       0.094300
      6 N1           1.5520     2.4420     0.0330 na         1 UW5      -0.021800
      7 C2           2.2960     3.0270     1.0150 ca         1 UW5       0.510800
      8 N3           3.4780     2.7680     1.5710 nb         1 UW5      -0.786000
      9 C21          3.9520     3.5340     2.5290 ca         1 UW5       0.728900
     10 N4           3.2990     4.5870     2.9900 nb         1 UW5      -0.802000
     11 C            2.1110     4.9270     2.5000 ca         1 UW5       0.785200
     12 N            1.4330     6.0280     2.9850 nv         1 UW5      -1.072500
     13 N2           0.3660     3.1610    -0.1440 nc         1 UW5      -0.464100
     14 C7           0.3290     4.1740     0.6900 cd         1 UW5       0.439500
     15 C1           1.5640     4.1390     1.4740 ca         1 UW5      -0.493500
     16 C8          -0.7610     5.1710     0.8120 ca         1 UW5      -0.105900
     17 C20         -0.4520     6.5170     0.9010 ca         1 UW5      -0.070000
     18 C19         -1.4870     7.4560     1.0170 ca         1 UW5      -0.078000
     19 C11         -2.8340     7.0110     1.0390 ca         1 UW5       0.009000
     20 C10         -3.1140     5.6360     0.9450 ca         1 UW5      -0.133000
     21 C9          -2.0980     4.7420     0.8290 ca         1 UW5      -0.088000
     22 C18         -1.2120     8.8330     1.1110 ca         1 UW5      -0.077000
     23 C17         -2.2360     9.7200     1.2230 ca         1 UW5      -0.203000
     24 C13         -3.5650     9.2830     1.2450 ca         1 UW5       0.149100
     25 C12         -3.8690     7.9550     1.1550 ca         1 UW5      -0.166000
     26 O1          -4.5670    10.1930     1.3570 os         1 UW5      -0.291900
     27 C14         -4.1990    11.5730     1.3140 cx         1 UW5       0.058100
     28 C16         -4.8210    12.5050     2.3560 cx         1 UW5      -0.136900
     29 C15         -5.2730    12.5790     0.8960 cx         1 UW5      -0.136900
     30 H1          -0.3140    -0.8890    -0.0090 ho         1 UW5       0.402000
     31 H2           2.9980     0.2340     1.4500 hc         1 UW5       0.048200
     32 H3           1.4010     0.7440     2.0160 hc         1 UW5       0.048200
     33 H4           1.7830    -0.9780     1.8800 hc         1 UW5       0.048200
     34 H5           1.5600    -1.2630    -1.7350 hc         1 UW5       0.048200
     35 H6           3.0230    -1.2390    -0.7410 hc         1 UW5       0.048200
     36 H7           1.5980    -2.1340    -0.1960 hc         1 UW5       0.048200
     37 H8           1.5070     1.2930    -1.7150 h1         1 UW5       0.077700
     38 H9           3.0190     1.2050    -0.8010 h1         1 UW5       0.077700
     39 H10          4.9170     3.2930     2.9580 h5         1 UW5       0.060100
     40 H11          0.6730     5.9050     3.6250 hn         1 UW5       0.444300
     41 H12          1.7460     6.9500     2.7520 hn         1 UW5       0.444300
     42 H13          0.5650     6.8500     0.7380 ha         1 UW5       0.139000
     43 H14         -4.1410     5.2900     0.9570 ha         1 UW5       0.138000
     44 H15         -2.3220     3.6850     0.7500 ha         1 UW5       0.147000
     45 H16         -0.1880     9.1850     1.0950 ha         1 UW5       0.132000
     46 H17         -2.0200    10.7790     1.2960 ha         1 UW5       0.137000
     47 H18         -4.9020     7.6300     1.1730 ha         1 UW5       0.149000
     48 H19         -3.1910    11.8360     1.0150 h1         1 UW5       0.090700
     49 H20         -4.1890    13.3190     2.6910 hc         1 UW5       0.083200
     50 H21         -5.5210    12.0410     3.0390 hc         1 UW5       0.083200
     51 H22         -4.9180    13.4380     0.3400 hc         1 UW5       0.083200
     52 H23         -6.2500    12.1600     0.6880 hc         1 UW5       0.083200
@<TRIPOS>BOND
     1    23    22 ar
     2    23    24 ar
     3    22    18 ar
     4    26    24 1
     5    26    27 1
     6    24    25 ar
     7    18    17 ar
     8    18    19 ar
     9    25    19 ar
    10    27    29 1
    11    27    28 1
    12    17    16 ar
    13    19    20 ar
    14    29    28 1
    15     4     2 1
    16    12    11 1
    17    16    14 1
    18    16    21 ar
    19    20    21 ar
    20    11    15 ar
    21    11    10 ar
    22    14    15 1
    23    14    13 2
    24    15     7 ar
    25    10     9 ar
    26    13     6 1
    27     7     6 1
    28     7     8 ar
    29     9     8 ar
    30     6     5 1
    31     2     1 1
    32     2     5 1
    33     2     3 1
    34     1    30 1
    35     3    31 1
    36     3    32 1
    37     3    33 1
    38     4    34 1
    39     4    35 1
    40     4    36 1
    41     5    37 1
    42     5    38 1
    43     9    39 1
    44    12    40 1
    45    12    41 1
    46    17    42 1
    47    20    43 1
    48    21    44 1
    49    22    45 1
    50    23    46 1
    51    25    47 1
    52    27    48 1
    53    28    49 1
    54    28    50 1
    55    29    51 1
    56    29    52 1
@<TRIPOS>SUBSTRUCTURE
     1 UW5         1 TEMP              0 ****  ****    0 ROOT
