@<TRIPOS>MOLECULE
UW9
   61    64     1     0     0
SMALL
bcc


@<TRIPOS>ATOM
      1 CAB          0.0000     0.0000     0.0000 c3         1 UW9      -0.008100
      2 CBB          1.5300     0.0000     0.0000 c3         1 UW9      -0.094700
      3 CAC          2.0390     1.2500    -0.7210 c3         1 UW9      -0.008100
      4 CBC          2.0400     0.0000     1.4430 c3         1 UW9       0.105500
      5 NBD          3.5040    -0.1090     1.4450 n3         1 UW9      -0.533600
      6 CAD          3.9630    -1.0610     0.4240 c3         1 UW9       0.166600
      7 CAE          4.1300     1.2060     1.2570 c3         1 UW9       0.166600
      8 CAO          1.4390    -1.1900     2.1960 c3         1 UW9      -0.014700
      9 NBE          1.8390    -1.1280     3.6030 na         1 UW9       0.389200
     10 NAR          1.0980    -0.5310     4.6290 nc         1 UW9      -0.628100
     11 C4           2.9880    -1.6490     4.1190 ca         1 UW9       0.336800
     12 N3           4.0240    -2.3130     3.6070 nb         1 UW9      -0.638000
     13 C2           5.0190    -2.7010     4.3740 ca         1 UW9       0.669900
     14 N1           5.0520    -2.4630     5.6730 nb         1 UW9      -0.698000
     15 C6           4.0650    -1.8080     6.2770 ca         1 UW9       0.618200
     16 NAF          4.1060    -1.5620     7.6350 nv         1 UW9      -0.646500
     17 C5           2.9800    -1.3730     5.4980 ca         1 UW9      -0.510500
     18 CAW          1.7370    -0.6500     5.7690 cd         1 UW9       0.485500
     19 CAU          1.2820    -0.1480     7.0870 ca         1 UW9      -0.110900
     20 CAM          2.1740     0.5090     7.9150 ca         1 UW9      -0.058000
     21 CAH         -0.0520    -0.3400     7.4830 ca         1 UW9      -0.064000
     22 CAJ         -0.4930     0.1110     8.6850 ca         1 UW9      -0.106000
     23 CAX          0.3900     0.7800     9.5520 ca         1 UW9       0.012000
     24 CAL         -0.0440     1.2550    10.8000 ca         1 UW9      -0.150000
     25 CAY          1.7380     0.9830     9.1620 ca         1 UW9      -0.079000
     26 CAI          2.6170     1.6570    10.0290 ca         1 UW9      -0.043000
     27 CAG          2.1700     2.1070    11.2310 ca         1 UW9      -0.195000
     28 CAT          0.8440     1.9060    11.6260 ca         1 UW9       0.155100
     29 OAS          0.4250     2.3670    12.8330 os         1 UW9      -0.306900
     30 CAN          1.3930     3.0340    13.6450 c3         1 UW9       0.201400
     31 CAA          0.7420     3.4780    14.9560 c3         1 UW9       0.000900
     32 H1          -0.3610     0.6590     0.7800 hc         1 UW9       0.010200
     33 H2          -0.3610    -1.0050     0.1810 hc         1 UW9       0.010200
     34 H3          -0.3610     0.3460    -0.9610 hc         1 UW9       0.010200
     35 H4           1.8910    -0.8840    -0.5110 hc         1 UW9       0.044700
     36 H5           1.3940     1.4700    -1.5630 hc         1 UW9       0.010200
     37 H6           3.0480     1.0760    -1.0750 hc         1 UW9       0.010200
     38 H7           2.0370     2.0880    -0.0350 hc         1 UW9       0.010200
     39 H8           1.7460     0.9220     1.9300 h1         1 UW9       0.053700
     40 H10          3.8100    -0.6360    -0.5610 h1         1 UW9       0.008700
     41 H11          3.4010    -1.9830     0.5100 h1         1 UW9       0.008700
     42 H12          5.0170    -1.2660     0.5690 h1         1 UW9       0.008700
     43 H13          4.4450     1.3130     0.2260 h1         1 UW9       0.008700
     44 H14          3.4150     1.9840     1.4990 h1         1 UW9       0.008700
     45 H15          4.9910     1.2920     1.9090 h1         1 UW9       0.008700
     46 H16          0.3590    -1.1530     2.1260 h1         1 UW9       0.047200
     47 H17          1.7980    -2.1130     1.7580 h1         1 UW9       0.047200
     48 H18          5.8450    -3.2380     3.9230 h5         1 UW9      -0.005900
     49 H19          4.7280    -0.8670     7.9990 hn         1 UW9       0.284300
     50 H20          3.5640    -2.1240     8.2620 hn         1 UW9       0.284300
     51 H21          3.1560     0.7800     7.5460 ha         1 UW9       0.116000
     52 H22         -0.7370    -0.8550     6.8200 ha         1 UW9       0.112000
     53 H23         -1.5250    -0.0450     8.9770 ha         1 UW9       0.110000
     54 H24         -1.0690     1.1030    11.1150 ha         1 UW9       0.122000
     55 H25          3.6470     1.8210     9.7370 ha         1 UW9       0.103000
     56 H26          2.8530     2.6220    11.8960 ha         1 UW9       0.119000
     57 H27          2.2120     2.3570    13.8600 h1         1 UW9      -0.000800
     58 H28          1.7710     3.9010    13.1180 h1         1 UW9      -0.000800
     59 H29          0.4460     2.6060    15.5260 hc         1 UW9       0.011033
     60 H30          1.4510     4.0620    15.5320 hc         1 UW9       0.011033
     61 H31         -0.1310     4.0820    14.7400 hc         1 UW9       0.011033
@<TRIPOS>BOND
     1     1     2 1   
     2     1    32 1   
     3     1    33 1   
     4     1    34 1   
     5     2     3 1   
     6     2     4 1   
     7     2    35 1   
     8     3    36 1   
     9     3    37 1   
    10     3    38 1   
    11     4     5 1   
    12     4     8 1   
    13     4    39 1   
    14     5     6 1   
    15     5     7 1   
    16     6    40 1   
    17     6    41 1   
    18     6    42 1   
    19     7    43 1   
    20     7    44 1   
    21     7    45 1   
    22     8     9 1   
    23     8    46 1   
    24     8    47 1   
    25     9    10 1   
    26     9    11 1   
    27    10    18 2   
    28    11    12 ar  
    29    11    17 ar  
    30    12    13 ar  
    31    13    14 ar  
    32    13    48 1   
    33    14    15 ar  
    34    15    16 1   
    35    15    17 ar  
    36    16    49 1   
    37    16    50 1   
    38    17    18 1   
    39    18    19 1   
    40    19    20 ar  
    41    19    21 ar  
    42    20    25 ar  
    43    20    51 1   
    44    21    22 ar  
    45    21    52 1   
    46    22    23 ar  
    47    22    53 1   
    48    23    24 ar  
    49    23    25 ar  
    50    24    28 ar  
    51    24    54 1   
    52    25    26 ar  
    53    26    27 ar  
    54    26    55 1   
    55    27    28 ar  
    56    27    56 1   
    57    28    29 1   
    58    29    30 1   
    59    30    31 1   
    60    30    57 1   
    61    30    58 1   
    62    31    59 1   
    63    31    60 1   
    64    31    61 1   
@<TRIPOS>SUBSTRUCTURE
     1 UW9         1 TEMP              0 ****  ****    0 ROOT
