@<TRIPOS>MOLECULE
molecule
   61    64     1     0     0
SMALL
bcc


@<TRIPOS>ATOM
      1 CAB          0.0000     0.0000     0.0000 c3         1 UW9      -0.092600
      2 CBB          1.5300     0.0000     0.0000 c3         1 UW9      -0.114700
      3 CAC          2.0390     1.2500    -0.7210 c3         1 UW9      -0.092600
      4 CBC          2.0400     0.0000     1.4430 c3         1 UW9       0.147500
      5 NBD          3.5040    -0.1090     1.4450 n3         1 UW9      -0.714600
      6 CAD          3.9630    -1.0610     0.4240 c3         1 UW9       0.150600
      7 CAE          4.1300     1.2060     1.2570 c3         1 UW9       0.150600
      8 CAO          1.4390    -1.1900     2.1960 c3         1 UW9       0.090300
      9 NBE          1.8390    -1.1280     3.6030 na         1 UW9      -0.021800
     10 NAR          1.0980    -0.5310     4.6290 nc         1 UW9      -0.497100
     11 C4           2.9880    -1.6490     4.1190 ca         1 UW9       0.536800
     12 N3           4.0240    -2.3130     3.6070 nb         1 UW9      -0.762000
     13 C2           5.0190    -2.7010     4.3740 ca         1 UW9       0.724900
     14 N1           5.0520    -2.4630     5.6730 nb         1 UW9      -0.805000
     15 C6           4.0650    -1.8080     6.2770 ca         1 UW9       0.782200
     16 NAF          4.1060    -1.5620     7.6350 nv         1 UW9      -1.073500
     17 C5           2.9800    -1.3730     5.4980 ca         1 UW9      -0.500500
     18 CAW          1.7370    -0.6500     5.7690 cd         1 UW9       0.446500
     19 CAU          1.2820    -0.1480     7.0870 ca         1 UW9      -0.107900
     20 CAM          2.1740     0.5090     7.9150 ca         1 UW9      -0.068000
     21 CAH         -0.0520    -0.3400     7.4830 ca         1 UW9      -0.090000
     22 CAJ         -0.4930     0.1110     8.6850 ca         1 UW9      -0.133000
     23 CAX          0.3900     0.7800     9.5520 ca         1 UW9       0.008000
     24 CAL         -0.0440     1.2550    10.8000 ca         1 UW9      -0.166000
     25 CAY          1.7380     0.9830     9.1620 ca         1 UW9      -0.079000
     26 CAI          2.6170     1.6570    10.0290 ca         1 UW9      -0.076000
     27 CAG          2.1700     2.1070    11.2310 ca         1 UW9      -0.206000
     28 CAT          0.8440     1.9060    11.6260 ca         1 UW9       0.147100
     29 OAS          0.4250     2.3670    12.8330 os         1 UW9      -0.329900
     30 CAN          1.3930     3.0340    13.6450 c3         1 UW9       0.135400
     31 CAA          0.7420     3.4780    14.9560 c3         1 UW9      -0.093100
     32 H1          -0.3610     0.6590     0.7800 hc         1 UW9       0.037867
     33 H2          -0.3610    -1.0050     0.1810 hc         1 UW9       0.037867
     34 H3          -0.3610     0.3460    -0.9610 hc         1 UW9       0.037867
     35 H4           1.8910    -0.8840    -0.5110 hc         1 UW9       0.059700
     36 H5           1.3940     1.4700    -1.5630 hc         1 UW9       0.037867
     37 H6           3.0480     1.0760    -1.0750 hc         1 UW9       0.037867
     38 H7           2.0370     2.0880    -0.0350 hc         1 UW9       0.037867
     39 H8           1.7460     0.9220     1.9300 h1         1 UW9       0.076700
     40 H10          3.8100    -0.6360    -0.5610 h1         1 UW9       0.033867
     41 H11          3.4010    -1.9830     0.5100 h1         1 UW9       0.033867
     42 H12          5.0170    -1.2660     0.5690 h1         1 UW9       0.033867
     43 H13          4.4450     1.3130     0.2260 h1         1 UW9       0.033867
     44 H14          3.4150     1.9840     1.4990 h1         1 UW9       0.033867
     45 H15          4.9910     1.2920     1.9090 h1         1 UW9       0.033867
     46 H16          0.3590    -1.1530     2.1260 h1         1 UW9       0.072200
     47 H17          1.7980    -2.1130     1.7580 h1         1 UW9       0.072200
     48 H18          5.8450    -3.2380     3.9230 h5         1 UW9       0.057100
     49 H19          4.7280    -0.8670     7.9990 hn         1 UW9       0.442300
     50 H20          3.5640    -2.1240     8.2620 hn         1 UW9       0.442300
     51 H21          3.1560     0.7800     7.5460 ha         1 UW9       0.141000
     52 H22         -0.7370    -0.8550     6.8200 ha         1 UW9       0.141000
     53 H23         -1.5250    -0.0450     8.9770 ha         1 UW9       0.137000
     54 H24         -1.0690     1.1030    11.1150 ha         1 UW9       0.148000
     55 H25          3.6470     1.8210     9.7370 ha         1 UW9       0.132000
     56 H26          2.8530     2.6220    11.8960 ha         1 UW9       0.135000
     57 H27          2.2120     2.3570    13.8600 h1         1 UW9       0.034200
     58 H28          1.7710     3.9010    13.1180 h1         1 UW9       0.034200
     59 H29          0.4460     2.6060    15.5260 hc         1 UW9       0.048367
     60 H30          1.4510     4.0620    15.5320 hc         1 UW9       0.048367
     61 H31         -0.1310     4.0820    14.7400 hc         1 UW9       0.048367
@<TRIPOS>BOND
     1     3     2 1
     2     2     1 1
     3     2     4 1
     4     4     5 1
     5     4     8 1
     6     5     7 1
     7     5     6 1
     8    12    13 ar
     9    12    11 ar
    10    13    14 ar
    11     8     9 1
    12    21    22 ar
    13    21    19 ar
    14    11     9 1
    15    11    17 ar
    16     9    10 1
    17    14    15 ar
    18    22    23 ar
    19    17    15 ar
    20    17    18 1
    21    15    16 1
    22    10    18 2
    23    18    19 1
    24    19    20 ar
    25    23    24 ar
    26    23    25 ar
    27    24    28 ar
    28    20    25 ar
    29    30    31 1
    30    30    29 1
    31    25    26 ar
    32    28    29 1
    33    28    27 ar
    34    26    27 ar
    35     1    32 1
    36     1    33 1
    37     1    34 1
    38     2    35 1
    39     3    36 1
    40     3    37 1
    41     3    38 1
    42     4    39 1
    43     6    40 1
    44     6    41 1
    45     6    42 1
    46     7    43 1
    47     7    44 1
    48     7    45 1
    49     8    46 1
    50     8    47 1
    51    13    48 1
    52    16    49 1
    53    16    50 1
    54    20    51 1
    55    21    52 1
    56    22    53 1
    57    24    54 1
    58    26    55 1
    59    27    56 1
    60    30    57 1
    61    30    58 1
    62    31    59 1
    63    31    60 1
    64    31    61 1
@<TRIPOS>SUBSTRUCTURE
     1 UW9         1 TEMP              0 ****  ****    0 ROOT
