@<TRIPOS>MOLECULE
UWA
   50    53     1     0     0
SMALL
bcc


@<TRIPOS>ATOM
      1 CAL          0.0000     0.0000     0.0000 c3         1 UWA       0.002900
      2 CAK          1.5300     0.0000     0.0000 c3         1 UWA      -0.074700
      3 CAM          2.0400     0.0000     1.4420 c3         1 UWA       0.002900
      4 CAJ          2.0390    -1.2500    -0.7210 c3         1 UWA      -0.004700
      5 NAG          1.6510    -1.1910    -2.1320 na         1 UWA       0.378200
      6 NAH          0.4590    -1.6930    -2.6640 nc         1 UWA      -0.617100
      7 C4           2.3940    -0.6340    -3.1310 ca         1 UWA       0.319800
      8 N3           3.5780    -0.0230    -3.1840 nb         1 UWA      -0.655000
      9 C2           4.0510     0.4230    -4.3270 ca         1 UWA       0.676900
     10 N1           3.3970     0.2990    -5.4690 nb         1 UWA      -0.695000
     11 C6           2.2090    -0.2950    -5.5170 ca         1 UWA       0.623200
     12 NAN          1.5300    -0.4230    -6.7130 nv         1 UWA      -0.647500
     13 C5           1.6610    -0.7900    -4.3210 ca         1 UWA      -0.507500
     14 CAI          0.4230    -1.4800    -3.9580 cd         1 UWA       0.482500
     15 CAO         -0.6720    -1.8630    -4.8810 ca         1 UWA      -0.085900
     16 CAT         -0.3700    -2.4510    -6.0950 ca         1 UWA      -0.083000
     17 CAS         -1.4110    -2.8130    -6.9660 ca         1 UWA       0.001000
     18 CAX         -1.1440    -3.4140    -8.2070 ca         1 UWA      -0.151000
     19 CAW         -2.1800    -3.7540    -9.0300 ca         1 UWA       0.154100
     20 OAY         -1.9200    -4.3360   -10.2300 os         1 UWA      -0.307900
     21 CAZ         -3.0440    -4.6680   -11.0470 c3         1 UWA       0.201400
     22 CBA         -2.5580    -5.3080   -12.3480 c3         1 UWA       0.000900
     23 CAV         -3.5030    -3.5120    -8.6520 ca         1 UWA      -0.191000
     24 CAU         -3.7950    -2.9310    -7.4570 ca         1 UWA      -0.044000
     25 CAR         -2.7560    -2.5680    -6.5850 ca         1 UWA      -0.068000
     26 CAQ         -3.0280    -1.9680    -5.3430 ca         1 UWA      -0.079000
     27 CAP         -2.0070    -1.6300    -4.5130 ca         1 UWA      -0.090000
     28 H1          -0.3610     0.5490    -0.8620 hc         1 UWA       0.007867
     29 H2          -0.3610    -1.0200    -0.0440 hc         1 UWA       0.007867
     30 H3          -0.3610     0.4720     0.9060 hc         1 UWA       0.007867
     31 H4           1.8910     0.8840    -0.5110 hc         1 UWA       0.037700
     32 H5           1.6650    -0.8760     1.9580 hc         1 UWA       0.007867
     33 H6           3.1230    -0.0170     1.4420 hc         1 UWA       0.007867
     34 H7           1.6930     0.8930     1.9480 hc         1 UWA       0.007867
     35 H8           1.6060    -2.1310    -0.2640 h1         1 UWA       0.042200
     36 H9           3.1180    -1.2960    -0.6440 h1         1 UWA       0.042200
     37 H10          5.0170     0.9140    -4.3330 h5         1 UWA      -0.003900
     38 H11          0.7760     0.2000    -6.9290 hn         1 UWA       0.286800
     39 H12          1.8340    -1.0930    -7.3910 hn         1 UWA       0.286800
     40 H13          0.6460    -2.7590    -6.3100 ha         1 UWA       0.118000
     41 H14         -0.1320    -3.7040    -8.4620 ha         1 UWA       0.121000
     42 H15         -3.6030    -3.7680   -11.2740 h1         1 UWA      -0.000800
     43 H16         -3.6810    -5.3650   -10.5170 h1         1 UWA      -0.000800
     44 H17         -3.3430    -5.2550   -13.0920 hc         1 UWA       0.011367
     45 H18         -2.3020    -6.3450   -12.1670 hc         1 UWA       0.011367
     46 H19         -1.6840    -4.7780   -12.7070 hc         1 UWA       0.011367
     47 H20         -4.3090    -3.7900    -9.3220 ha         1 UWA       0.119000
     48 H21         -4.8260    -2.7490    -7.1780 ha         1 UWA       0.105000
     49 H22         -4.0530    -1.7810    -5.0440 ha         1 UWA       0.106000
     50 H23         -2.2260    -1.1740    -3.5550 ha         1 UWA       0.114000
@<TRIPOS>BOND
     1     1     2 1   
     2     1    28 1   
     3     1    29 1   
     4     1    30 1   
     5     2     3 1   
     6     2     4 1   
     7     2    31 1   
     8     3    32 1   
     9     3    33 1   
    10     3    34 1   
    11     4     5 1   
    12     4    35 1   
    13     4    36 1   
    14     5     6 1   
    15     5     7 1   
    16     6    14 2   
    17     7     8 ar  
    18     7    13 ar  
    19     8     9 ar  
    20     9    10 ar  
    21     9    37 1   
    22    10    11 ar  
    23    11    12 1   
    24    11    13 ar  
    25    12    38 1   
    26    12    39 1   
    27    13    14 1   
    28    14    15 1   
    29    15    16 ar  
    30    15    27 ar  
    31    16    17 ar  
    32    16    40 1   
    33    17    18 ar  
    34    17    25 ar  
    35    18    19 ar  
    36    18    41 1   
    37    19    20 1   
    38    19    23 ar  
    39    20    21 1   
    40    21    22 1   
    41    21    42 1   
    42    21    43 1   
    43    22    44 1   
    44    22    45 1   
    45    22    46 1   
    46    23    24 ar  
    47    23    47 1   
    48    24    25 ar  
    49    24    48 1   
    50    25    26 ar  
    51    26    27 ar  
    52    26    49 1   
    53    27    50 1   
@<TRIPOS>SUBSTRUCTURE
     1 UWA         1 TEMP              0 ****  ****    0 ROOT
