@<TRIPOS>MOLECULE
molecule
   56    60     1     0     0
SMALL
bcc


@<TRIPOS>ATOM
      1 N5           0.0000     0.0000     0.0000 nv         1 UWB      -1.073500
      2 C            1.3820     0.0000     0.0000 ca         1 UWB       0.785200
      3 C3           2.1020     0.0000     1.2050 ca         1 UWB      -0.497500
      4 C4           1.7440     0.0010     2.6240 cc         1 UWB       0.445500
      5 N2           2.8620     0.0000     3.3100 nd         1 UWB      -0.487100
      6 N3           3.9560     0.0000     2.4370 na         1 UWB      -0.028800
      7 C5           5.3630    -0.0000     2.8440 c3         1 UWB       0.085300
      8 C6           5.8530    -1.4440     2.9850 c3         1 UWB      -0.096700
      9 C10          7.3530    -1.4460     3.2880 c3         1 UWB      -0.073400
     10 C9           7.8250    -2.8890     3.4890 c3         1 UWB       0.159300
     11 N4           7.0820    -3.4980     4.6000 n7         1 UWB      -0.819200
     12 C8           5.6430    -3.5480     4.3110 c3         1 UWB       0.159300
     13 C7           5.1060    -2.1260     4.1340 c3         1 UWB      -0.073400
     14 C2           3.5080    -0.0000     1.1490 ca         1 UWB       0.514800
     15 N1           4.1000    -0.0000    -0.0450 nb         1 UWB      -0.780000
     16 C1           3.3840     0.0000    -1.1480 ca         1 UWB       0.730900
     17 N            2.0630    -0.0050    -1.1420 nb         1 UWB      -0.801000
     18 C11          0.3710     0.0020     3.1830 ca         1 UWB      -0.085900
     19 C16         -0.5870    -0.8420     2.6510 ca         1 UWB      -0.094000
     20 C15         -1.8850    -0.8370     3.1840 ca         1 UWB      -0.008000
     21 C17         -2.8850    -1.6790     2.6690 ca         1 UWB      -0.164000
     22 C18         -4.1380    -1.6490     3.2110 ca         1 UWB       0.144100
     23 O           -5.1040    -2.4640     2.7120 os         1 UWB      -0.331900
     24 C21         -6.3950    -2.3880     3.3200 c3         1 UWB       0.135400
     25 C22         -7.3430    -3.3720     2.6320 c3         1 UWB      -0.092100
     26 C19         -4.4400    -0.7900     4.2720 ca         1 UWB      -0.200000
     27 C20         -3.4940     0.0380     4.7930 ca         1 UWB      -0.080000
     28 C14         -2.1930     0.0340     4.2600 ca         1 UWB      -0.062000
     29 C13         -1.1960     0.8790     4.7800 ca         1 UWB      -0.110000
     30 C12          0.0560     0.8550     4.2530 ca         1 UWB      -0.114000
     31 H1          -0.5000     0.8450     0.1960 hn         1 UWB       0.445300
     32 H2          -0.5000    -0.8260    -0.2630 hn         1 UWB       0.445300
     33 H3           5.4650     0.5110     3.7940 h1         1 UWB       0.072200
     34 H4           5.9560     0.5100     2.0940 h1         1 UWB       0.072200
     35 H5           5.6700    -1.9850     2.0650 hc         1 UWB       0.063700
     36 H6           7.5410    -0.8770     4.1900 hc         1 UWB       0.054200
     37 H7           7.8900    -1.0050     2.4570 hc         1 UWB       0.054200
     38 H8           7.6450    -3.4560     2.5830 h1         1 UWB       0.032450
     39 H9           8.8830    -2.8930     3.7200 h1         1 UWB       0.032450
     40 H10          7.4220    -4.4250     4.7610 hn         1 UWB       0.352800
     41 H12          5.1280    -4.0270     5.1350 h1         1 UWB       0.032450
     42 H13          5.4780    -4.1100     3.4000 h1         1 UWB       0.032450
     43 H14          5.2610    -1.5650     5.0480 hc         1 UWB       0.054200
     44 H15          4.0480    -2.1660     3.9030 hc         1 UWB       0.054200
     45 H16          3.8980    -0.0040    -2.1010 h5         1 UWB       0.061100
     46 H17         -0.3730    -1.4060     1.7510 ha         1 UWB       0.147000
     47 H18         -2.6920    -2.2680     1.7810 ha         1 UWB       0.146000
     48 H19         -6.7830    -1.3810     3.2190 h1         1 UWB       0.034200
     49 H20         -6.3140    -2.6390     4.3710 h1         1 UWB       0.034200
     50 H21         -7.4230    -3.1210     1.5810 hc         1 UWB       0.048367
     51 H22         -6.9560    -4.3780     2.7340 hc         1 UWB       0.048367
     52 H23         -8.3220    -3.3130     3.0920 hc         1 UWB       0.048367
     53 H24         -5.4410    -0.7830     4.6850 ha         1 UWB       0.135000
     54 H25         -3.7440     0.6980     5.6150 ha         1 UWB       0.135000
     55 H26         -1.4240     1.5430     5.6050 ha         1 UWB       0.135000
     56 H27          0.8210     1.5030     4.6630 ha         1 UWB       0.142000
@<TRIPOS>BOND
     1    27    26 ar
     2    27    28 ar
     3    29    28 ar
     4    29    30 ar
     5    26    22 ar
     6    28    20 ar
     7    30    18 ar
     8    22    23 1
     9    22    21 ar
    10    20    21 ar
    11    20    19 ar
    12    23    24 1
    13    18    19 ar
    14    18     4 1
    15    25    24 1
    16     1     2 1
    17     4     3 1
    18     4     5 2
    19     2     3 ar
    20     2    17 ar
    21     3    14 ar
    22     5     6 1
    23    17    16 ar
    24     7     6 1
    25     7     8 1
    26    14     6 1
    27    14    15 ar
    28    16    15 ar
    29     8     9 1
    30     8    13 1
    31     9    10 1
    32    13    12 1
    33    10    11 1
    34    11    12 1
    35     1    31 1
    36     1    32 1
    37     7    33 1
    38     7    34 1
    39     8    35 1
    40     9    36 1
    41     9    37 1
    42    10    38 1
    43    10    39 1
    44    11    40 1
    45    12    41 1
    46    12    42 1
    47    13    43 1
    48    13    44 1
    49    16    45 1
    50    19    46 1
    51    21    47 1
    52    24    48 1
    53    24    49 1
    54    25    50 1
    55    25    51 1
    56    25    52 1
    57    26    53 1
    58    27    54 1
    59    29    55 1
    60    30    56 1
@<TRIPOS>SUBSTRUCTURE
     1 UWB         1 TEMP              0 ****  ****    0 ROOT
