@<TRIPOS>MOLECULE
UWN
   82    87     1     0     0
SMALL
bcc


@<TRIPOS>ATOM
      1 N3           0.0000     0.0000     0.0000 nu         1 UWN      -0.254000
      2 N4          -2.4040    -2.7270     3.7490 n          1 UWN      -0.140800
      3 N2           1.5410     3.2020     1.5380 n          1 UWN      -0.134800
      4 N1           3.3310     6.3800     3.6130 n3         1 UWN      -0.537600
      5 OAA         -1.0560    -2.0750     5.3880 o          1 UWN      -0.644100
      6 OAB         -0.2010     2.9130     0.1900 o          1 UWN      -0.643100
      7 CAE          3.6760     0.0000     0.0000 ca         1 UWN      -0.054500
      8 CAF          1.5870    -0.0020    -1.8190 ca         1 UWN      -0.182000
      9 CAG          2.3710     0.0000     0.4540 ca         1 UWN      -0.182000
     10 CAH         -0.7900     0.4950     4.0700 ca         1 UWN      -0.051000
     11 CAI         -0.3310     1.5610     3.3320 ca         1 UWN      -0.089000
     12 CAJ         -0.7210    -0.9140     2.1080 ca         1 UWN      -0.122000
     13 CAM          4.7330     7.4930     5.1800 c3         1 UWN      -0.028400
     14 CAN          4.9170     8.2060     3.8200 c3         1 UWN      -0.028400
     15 CAQ          2.2640     5.5310     1.5770 c3         1 UWN      -0.049400
     16 CAR          2.4230     4.1050     3.6260 c3         1 UWN      -0.049400
     17 CAU          4.2170     6.0910     4.7680 c3         1 UWN       0.146300
     18 CAV          4.0100     7.4420     2.8390 c3         1 UWN       0.146300
     19 CAX         -2.9610    -3.8190     4.5590 c3         1 UWN       0.027000
     20 CAY          2.0830     4.2840     0.7060 c3         1 UWN       0.032500
     21 CAZ          2.2430     2.8420     2.7770 c3         1 UWN       0.032500
     22 CBD          1.3210    -0.0010    -0.4560 ca         1 UWN       0.053600
     23 CBE         -0.9870    -0.7480     3.4630 ca         1 UWN      -0.120600
     24 CBF         -0.2670     0.1600     1.3540 ca         1 UWN       0.045600
     25 CBG         -0.0650     1.4060     1.9690 ca         1 UWN      -0.129600
     26 CBI          3.1270     5.1790     2.7920 c3         1 UWN       0.130500
     27 H1          -0.7520    -0.1370    -0.6460 hn         1 UWN       0.295800
     28 H3           4.4950     0.0010     0.7090 ha         1 UWN       0.098000
     29 H6           0.7700    -0.0020    -2.5310 ha         1 UWN       0.113500
     30 H9           2.1680    -0.0640     1.5160 ha         1 UWN       0.113500
     31 H10         -0.9970     0.6190     5.1260 ha         1 UWN       0.125000
     32 H11         -0.1790     2.5230     3.8060 ha         1 UWN       0.120000
     33 H12         -0.8740    -1.8780     1.6390 ha         1 UWN       0.132000
     34 H13          5.6790     7.4140     5.7010 hc         1 UWN       0.019200
     35 H14          3.9960     8.0080     5.7840 hc         1 UWN       0.019200
     36 H15          5.9500     8.1430     3.5020 hc         1 UWN       0.019200
     37 H16          4.6020     9.2400     3.8940 hc         1 UWN       0.019200
     38 H17          2.7540     6.3060     1.0000 hc         1 UWN       0.031700
     39 H18          1.2950     5.8800     1.9130 hc         1 UWN       0.031700
     40 H19          1.4520     4.4700     3.9380 hc         1 UWN       0.031700
     41 H20          3.0250     3.8720     4.4960 hc         1 UWN       0.031700
     42 H21          5.0410     5.4560     4.4670 h1         1 UWN       0.014450
     43 H22          3.6540     5.6400     5.5770 h1         1 UWN       0.014450
     44 H23          3.2760     8.1170     2.4150 h1         1 UWN       0.014450
     45 H24          4.6100     6.9990     2.0530 h1         1 UWN       0.014450
     46 H25         -2.6110    -3.7270     5.5800 h1         1 UWN       0.038950
     47 H26         -2.6510    -4.7710     4.1460 h1         1 UWN       0.038950
     48 H28          1.3930     4.5020    -0.1000 h1         1 UWN       0.037450
     49 H29          3.0410     3.9840     0.3000 h1         1 UWN       0.037450
     50 H30          1.6580     2.1160     3.3280 h1         1 UWN       0.037450
     51 H31          3.2140     2.4270     2.5360 h1         1 UWN       0.037450
     52 H32          4.0840     4.8000     2.4550 h1         1 UWN       0.013700
     53 C1           3.9370    -0.0070    -1.3580 ca         1 UWN      -0.159000
     54 C2           2.8930    -0.0080    -2.2660 ca         1 UWN      -0.054500
     55 C3          -2.8660    -2.5690     2.3620 c3         1 UWN       0.027000
     56 C4          -4.3960    -2.4850     2.3600 c3         1 UWN      -0.048400
     57 C5          -4.4910    -3.7220     4.5300 c3         1 UWN      -0.048400
     58 C6          -4.9700    -3.7090     3.0770 c3         1 UWN       0.129500
     59 H2           4.9610    -0.0090    -1.7120 ha         1 UWN       0.103000
     60 H4           3.1010    -0.0110    -3.3290 ha         1 UWN       0.098000
     61 H5          -2.4530    -1.6580     1.9450 h1         1 UWN       0.038950
     62 H7          -2.5480    -3.4220     1.7750 h1         1 UWN       0.038950
     63 H8          -4.7090    -1.5850     2.8750 hc         1 UWN       0.033200
     64 H27         -4.7540    -2.4660     1.3380 hc         1 UWN       0.033200
     65 H33         -4.8030    -2.8070     5.0210 hc         1 UWN       0.033200
     66 H34         -4.9160    -4.5760     5.0430 hc         1 UWN       0.033200
     67 C8          -7.0300    -4.7640     3.8190 c3         1 UWN       0.146300
     68 C9          -8.3310    -5.1680     3.1020 c3         1 UWN      -0.028400
     69 C10         -8.4200    -4.2390     1.8710 c3         1 UWN      -0.028400
     70 C7          -6.9480    -3.8010     1.6600 c3         1 UWN       0.146300
     71 N5          -6.4380    -3.6490     3.0480 n3         1 UWN      -0.537600
     72 H35         -4.6310    -4.6090     2.5790 h1         1 UWN       0.012700
     73 H36         -6.3450    -5.6030     3.8380 h1         1 UWN       0.014450
     74 H37         -7.2510    -4.4380     4.8280 h1         1 UWN       0.014450
     75 H38         -8.2800    -6.2030     2.7880 hc         1 UWN       0.019200
     76 H39         -9.1820    -5.0080     3.7540 hc         1 UWN       0.019200
     77 H40         -8.7830    -4.7830     1.0070 hc         1 UWN       0.019200
     78 H41         -9.0460    -3.3810     2.0840 hc         1 UWN       0.019200
     79 H42         -6.9040    -2.8560     1.1330 h1         1 UWN       0.014450
     80 H43         -6.3950    -4.5680     1.1330 h1         1 UWN       0.014450
     81 CBB         -1.4820    -1.8900     4.2650 c          1 UWN       0.608700
     82 CBC          0.4170     2.5530     1.1730 c          1 UWN       0.612700
@<TRIPOS>BOND
     1     1    22 1   
     2     1    24 1   
     3     1    27 1   
     4     2    19 1   
     5     2    55 1   
     6     2    81 1   
     7     3    20 1   
     8     3    21 1   
     9     3    82 1   
    10     4    17 1   
    11     4    18 1   
    12     4    26 1   
    13     5    81 2   
    14     6    82 2   
    15     7     9 ar  
    16     7    28 1   
    17     7    53 ar  
    18     8    22 ar  
    19     8    29 1   
    20     8    54 ar  
    21     9    22 ar  
    22     9    30 1   
    23    10    11 ar  
    24    10    23 ar  
    25    10    31 1   
    26    11    25 ar  
    27    11    32 1   
    28    12    23 ar  
    29    12    24 ar  
    30    12    33 1   
    31    13    14 1   
    32    13    17 1   
    33    13    34 1   
    34    13    35 1   
    35    14    18 1   
    36    14    36 1   
    37    14    37 1   
    38    15    20 1   
    39    15    26 1   
    40    15    38 1   
    41    15    39 1   
    42    16    21 1   
    43    16    26 1   
    44    16    40 1   
    45    16    41 1   
    46    17    42 1   
    47    17    43 1   
    48    18    44 1   
    49    18    45 1   
    50    19    46 1   
    51    19    47 1   
    52    19    57 1   
    53    20    48 1   
    54    20    49 1   
    55    21    50 1   
    56    21    51 1   
    57    23    81 1   
    58    24    25 ar  
    59    25    82 1   
    60    26    52 1   
    61    53    54 ar  
    62    53    59 1   
    63    54    60 1   
    64    55    56 1   
    65    55    61 1   
    66    55    62 1   
    67    56    58 1   
    68    56    63 1   
    69    56    64 1   
    70    57    58 1   
    71    57    65 1   
    72    57    66 1   
    73    58    71 1   
    74    58    72 1   
    75    67    68 1   
    76    67    71 1   
    77    67    73 1   
    78    67    74 1   
    79    68    69 1   
    80    68    75 1   
    81    68    76 1   
    82    69    70 1   
    83    69    77 1   
    84    69    78 1   
    85    70    71 1   
    86    70    79 1   
    87    70    80 1   
@<TRIPOS>SUBSTRUCTURE
     1 UWN         1 TEMP              0 ****  ****    0 ROOT
