@<TRIPOS>MOLECULE
UWU
   28    30     1     0     0
SMALL
bcc


@<TRIPOS>ATOM
      1 C16         0.0140   -0.0710   -0.0000 ca        1 UWU     -0.108000
      2 C15         1.4070   -0.0810    0.0080 ca        1 UWU     -0.130500
      3 C14         2.1020   -0.0060    1.2150 ca        1 UWU     -0.114000
      4 C13         1.4000    0.0790    2.4170 ca        1 UWU     -0.130500
      5 C12         0.0060    0.0970    2.4160 ca        1 UWU     -0.108000
      6 C11        -0.6960    0.0240    1.2050 ca        1 UWU     -0.083800
      7 C4         -2.1600    0.0110    1.1890 cc        1 UWU      0.109600
      8 C3         -2.8360   -1.0170    0.6200 cd        1 UWU     -0.257200
      9 C2         -4.2880   -1.0580    0.6110 c         1 UWU      0.722800
     10 O2         -5.0440   -1.9070    0.1420 o         1 UWU     -0.558500
     11 O8         -5.0140   -0.0230    1.2070 os        1 UWU     -0.323200
     12 C8A        -4.3240    1.0300    1.7630 ca        1 UWU      0.188100
     13 C8         -5.1210    2.0430    2.3160 ca        1 UWU     -0.183000
     14 C4A        -2.9130    1.1020    1.7790 ca        1 UWU     -0.172800
     15 C5         -2.3090    2.2330    2.3490 ca        1 UWU     -0.027000
     16 C6         -3.0810    3.2490    2.9000 ca        1 UWU     -0.101600
     17 CL         -2.3110    4.6030    3.5840 cl        1 UWU     -0.083400
     18 C7         -4.4930    3.1540    2.8880 ca        1 UWU      0.184100
     19 O7         -5.3250    4.1060    3.4120 oh        1 UWU     -0.479100
     20 H16        -0.5340   -0.1360   -0.9530 ha        1 UWU      0.142000
     21 H15         1.9590   -0.1500   -0.9420 ha        1 UWU      0.139000
     22 H14         3.2020   -0.0170    1.2190 ha        1 UWU      0.138000
     23 H13         1.9450    0.1310    3.3710 ha        1 UWU      0.139000
     24 H12        -0.5460    0.1590    3.3660 ha        1 UWU      0.142000
     25 H3         -2.3300   -1.8730    0.1480 ha        1 UWU      0.175000
     26 H8         -6.2180    1.9670    2.2980 ha        1 UWU      0.182000
     27 H5         -1.2080    2.3120    2.3520 ha        1 UWU      0.165000
     28 H7         -4.7840    4.8280    3.7710 ho        1 UWU      0.436000
@<TRIPOS>BOND
     1    1    2 ar  
     2    1    6 ar  
     3    1   20 1   
     4    2    3 ar  
     5    2   21 1   
     6    3    4 ar  
     7    3   22 1   
     8    4    5 ar  
     9    4   23 1   
    10    5    6 ar  
    11    5   24 1   
    12    6    7 1   
    13    7    8 2   
    14    7   14 1   
    15    8    9 1   
    16    8   25 1   
    17    9   10 2   
    18    9   11 1   
    19   11   12 1   
    20   12   13 ar  
    21   12   14 ar  
    22   13   18 ar  
    23   13   26 1   
    24   14   15 ar  
    25   15   16 ar  
    26   15   27 1   
    27   16   17 1   
    28   16   18 ar  
    29   18   19 1   
    30   19   28 1   
@<TRIPOS>SUBSTRUCTURE
     1 UWU         1 TEMP              0 ****  ****    0 ROOT
