@<TRIPOS>MOLECULE
molecule
   28    30     1     0     0
SMALL
bcc


@<TRIPOS>ATOM
      1 C16          0.0000     0.0000     0.0000 ca         1 UWU      -0.106000
      2 C15          1.3800     0.0000     0.0000 ca         1 UWU      -0.127500
      3 C14          2.0740     0.0000     1.1970 ca         1 UWU      -0.114000
      4 C13          1.3910     0.0000     2.4010 ca         1 UWU      -0.127500
      5 C12          0.0110     0.0010     2.4130 ca         1 UWU      -0.106000
      6 C11         -0.6950     0.0000     1.2100 ca         1 UWU      -0.080800
      7 C4          -2.1740     0.0010     1.2160 cc         1 UWU       0.084600
      8 C3          -2.8910    -1.0720     0.7190 cd         1 UWU      -0.265200
      9 C2          -4.2950    -1.0370     0.7430 c          1 UWU       0.738800
     10 O2          -4.9180    -1.9880     0.3030 o          1 UWU      -0.572500
     11 O8          -4.9700     0.0130     1.2350 os         1 UWU      -0.306200
     12 C8A         -4.3360     1.0960     1.7370 ca         1 UWU       0.182100
     13 C8          -5.0600     2.1680     2.2400 ca         1 UWU      -0.177000
     14 C4A         -2.9310     1.1420     1.7580 ca         1 UWU      -0.153800
     15 C5          -2.2740     2.2580     2.2800 ca         1 UWU      -0.054000
     16 C6          -3.0000     3.3040     2.7780 ca         1 UWU      -0.025600
     17 Cl          -2.1820     4.6900     3.4270 cl         1 UWU      -0.081400
     18 C7          -4.3930     3.2700     2.7490 ca         1 UWU       0.162100
     19 O7          -5.1020     4.3180     3.2410 oh         1 UWU      -0.504100
     20 H16         -0.5430    -0.0000    -0.9380 ha         1 UWU       0.139500
     21 H15          1.9210    -0.0000    -0.9390 ha         1 UWU       0.137500
     22 H14          3.1570    -0.0000     1.1930 ha         1 UWU       0.135000
     23 H13          1.9400     0.0000     3.3340 ha         1 UWU       0.137500
     24 H12         -0.5230     0.0010     3.3560 ha         1 UWU       0.139500
     25 H3          -2.3760    -1.9840     0.4400 ha         1 UWU       0.178000
     26 H8          -6.1430     2.1490     2.2210 ha         1 UWU       0.170000
     27 H5          -1.1930     2.2630     2.3570 ha         1 UWU       0.165000
     28 H7          -5.3900     4.1200     4.1160 ho         1 UWU       0.432000
@<TRIPOS>BOND
     1     1     2 ar
     2     1     6 ar
     3     2     3 ar
     4     3     4 ar
     5     4     5 ar
     6     5     6 ar
     7     6     7 1
     8     7     8 2
     9     7    14 1
    10     8     9 1
    11     9    10 2
    12     9    11 1
    13    11    12 1
    14    12    13 ar
    15    12    14 ar
    16    13    18 ar
    17    14    15 ar
    18    15    16 ar
    19    16    17 1
    20    16    18 ar
    21    18    19 1
    22     1    20 1
    23     2    21 1
    24     3    22 1
    25     4    23 1
    26     5    24 1
    27     8    25 1
    28    13    26 1
    29    15    27 1
    30    19    28 1
@<TRIPOS>SUBSTRUCTURE
     1 UWU         1 TEMP              0 ****  ****    0 ROOT
