@<TRIPOS>MOLECULE
molecule
   64    67     1     0     0
SMALL
bcc


@<TRIPOS>ATOM
      1 CAA          0.0000     0.0000     0.0000 c3         1 UWX      -0.091100
      2 CAB          2.0410     0.0000     1.4430 c3         1 UWX      -0.091100
      3 CAC          9.0760     0.8410    -5.8560 c3         1 UWX       0.090300
      4 CAD          7.5460    -4.3230    -8.0360 c3         1 UWX       0.094300
      5 CAI          4.3290    -1.7280     0.1710 ca         1 UWX      -0.145000
      6 CAJ          4.1310    -0.5960    -1.9310 ca         1 UWX      -0.145000
      7 CAK          5.7070    -1.6770     0.0680 ca         1 UWX      -0.028500
      8 CAL          5.5100    -0.5510    -2.0360 ca         1 UWX      -0.028500
      9 CAM          8.8140    -1.4880    -4.1460 ca         1 UWX      -0.188000
     10 CAN          8.0860    -3.9830    -5.1880 ca         1 UWX      -0.139000
     11 CAO          7.7900    -7.0880    -2.0800 c3         1 UWX       0.132400
     12 CAP         10.0850    -6.8230    -2.5850 c3         1 UWX       0.132400
     13 CAQ          7.4690    -5.8200    -2.8690 c3         1 UWX       0.118300
     14 CAR          9.7650    -5.5550    -3.3740 c3         1 UWX       0.118300
     15 CAS          2.0400    -1.2500    -0.7210 c3         1 UWX      -0.066100
     16 CAV          3.5420    -1.1890    -0.8300 ca         1 UWX      -0.018300
     17 CAW          8.6850    -2.5880    -3.2990 ca         1 UWX       0.180600
     18 CAX          6.2970    -1.0890    -1.0360 ca         1 UWX      -0.276500
     19 CAY          8.3200    -3.8390    -3.8210 ca         1 UWX       0.036600
     20 CAZ          8.4810    -0.5850    -7.8180 c          1 UWX       0.652500
     21 CBA          8.0940    -1.9090    -8.3780 c          1 UWX       0.652500
     22 CBB          8.5790    -1.6300    -5.5170 ca         1 UWX       0.073600
     23 CBC          8.2140    -2.8810    -6.0400 ca         1 UWX       0.034600
     24 CBD          1.5300     0.0000     0.0000 c3         1 UWX      -0.060700
     25 NAT          8.6740    -2.4280    -1.8550 nu         1 UWX      -0.727500
     26 NBE          8.5750    -4.9210    -2.9110 nh         1 UWX      -0.583000
     27 NBF          8.7180    -0.4520    -6.4120 n          1 UWX      -0.419000
     28 NBG          7.9630    -3.0380    -7.5040 n          1 UWX      -0.424000
     29 OAE          8.5920     0.3540    -8.5320 o          1 UWX      -0.534500
     30 OAF          7.8950    -2.0290    -9.5400 o          1 UWX      -0.537500
     31 OAG          8.4700     0.1870    -1.9140 o          1 UWX      -0.587300
     32 OAH          8.6630    -0.7310     0.1460 o          1 UWX      -0.587300
     33 OAU          8.9790    -7.7210    -2.5440 os         1 UWX      -0.409600
     34 SBH          8.0520    -0.9960    -1.1580 sy         1 UWX       1.239200
     35 H1          -0.3610     0.8300     0.5950 hc         1 UWX       0.038200
     36 H2          -0.3610    -0.9300     0.4220 hc         1 UWX       0.038200
     37 H3          -0.3610     0.1000    -1.0160 hc         1 UWX       0.038200
     38 H4           3.1160     0.1300     1.4450 hc         1 UWX       0.038200
     39 H5           1.7900    -0.9420     1.9150 hc         1 UWX       0.038200
     40 H6           1.5780     0.8130     1.9900 hc         1 UWX       0.038200
     41 H7           9.2110     1.5550    -6.6600 h1         1 UWX       0.056367
     42 H8           9.9990     0.7500    -5.2950 h1         1 UWX       0.056367
     43 H9           8.2860     1.1820    -5.1980 h1         1 UWX       0.056367
     44 H10          8.3130    -5.0610    -7.8380 h1         1 UWX       0.049367
     45 H11          7.3930    -4.2390    -9.1050 h1         1 UWX       0.049367
     46 H12          6.6210    -4.6270    -7.5610 h1         1 UWX       0.049367
     47 H13          3.8670    -2.1890     1.0350 ha         1 UWX       0.143000
     48 H14          3.5140    -0.1740    -2.7150 ha         1 UWX       0.143000
     49 H15          6.3240    -2.0990     0.8510 ha         1 UWX       0.146000
     50 H16          5.9720    -0.0860    -2.8980 ha         1 UWX       0.146000
     51 H17          9.0950    -0.5230    -3.7420 ha         1 UWX       0.200000
     52 H18          7.8050    -4.9490    -5.5910 ha         1 UWX       0.152000
     53 H19          6.9630    -7.7810    -2.1790 h1         1 UWX       0.054450
     54 H20          7.9150    -6.8280    -1.0360 h1         1 UWX       0.054450
     55 H21         10.9250    -7.3230    -3.0510 h1         1 UWX       0.054450
     56 H22         10.3500    -6.5470    -1.5720 h1         1 UWX       0.054450
     57 H23          7.2030    -6.0960    -3.8830 h1         1 UWX       0.047700
     58 H24          6.6280    -5.3210    -2.4030 h1         1 UWX       0.047700
     59 H25          9.6400    -5.8140    -4.4190 h1         1 UWX       0.047700
     60 H26         10.5920    -4.8630    -3.2750 h1         1 UWX       0.047700
     61 H27          1.6520    -1.7360    -1.6080 hc         1 UWX       0.061200
     62 H28          1.7850    -1.8540     0.1410 hc         1 UWX       0.061200
     63 H29          1.8910     0.8850    -0.5110 hc         1 UWX       0.052700
     64 H30          9.0130    -3.1640    -1.2680 hn         1 UWX       0.474800
@<TRIPOS>BOND
     1    11    33 1
     2    11    13 1
     3    33    12 1
     4    13    26 1
     5    12    14 1
     6    26    14 1
     7    26    19 1
     8    19    10 ar
     9    19    17 ar
    10    10    23 ar
    11     4    28 1
    12    25    17 1
    13    25    34 1
    14    17     9 ar
    15    31    34 2
    16    23    28 1
    17    23    22 ar
    18    28    21 1
    19     7     5 ar
    20     7    18 ar
    21    34    18 1
    22    34    32 2
    23     9    22 ar
    24    22    27 1
    25     5    16 ar
    26    18     8 ar
    27    21    30 2
    28    21    20 1
    29    27    20 1
    30    27     3 1
    31     1    24 1
    32    20    29 2
    33    16    15 1
    34    16     6 ar
    35     8     6 ar
    36    15    24 1
    37    24     2 1
    38     1    35 1
    39     1    36 1
    40     1    37 1
    41     2    38 1
    42     2    39 1
    43     2    40 1
    44     3    41 1
    45     3    42 1
    46     3    43 1
    47     4    44 1
    48     4    45 1
    49     4    46 1
    50     5    47 1
    51     6    48 1
    52     7    49 1
    53     8    50 1
    54     9    51 1
    55    10    52 1
    56    11    53 1
    57    11    54 1
    58    12    55 1
    59    12    56 1
    60    13    57 1
    61    13    58 1
    62    14    59 1
    63    14    60 1
    64    15    61 1
    65    15    62 1
    66    24    63 1
    67    25    64 1
@<TRIPOS>SUBSTRUCTURE
     1 UWX         1 TEMP              0 ****  ****    0 ROOT
