@<TRIPOS>MOLECULE
UWX
   64    67     1     0     0
SMALL
bcc


@<TRIPOS>ATOM
      1 CAA          0.0000     0.0000     0.0000 c3         1 UWX      -0.000600
      2 CAB          2.0410     0.0000     1.4430 c3         1 UWX      -0.000600
      3 CAC          9.0760     0.8410    -5.8560 c3         1 UWX       0.070300
      4 CAD          7.5460    -4.3230    -8.0360 c3         1 UWX       0.077300
      5 CAI          4.3290    -1.7280     0.1710 ca         1 UWX      -0.126000
      6 CAJ          4.1310    -0.5960    -1.9310 ca         1 UWX      -0.126000
      7 CAK          5.7070    -1.6770     0.0680 ca         1 UWX       0.005500
      8 CAL          5.5100    -0.5510    -2.0360 ca         1 UWX       0.005500
      9 CAM          8.8140    -1.4880    -4.1460 ca         1 UWX      -0.177000
     10 CAN          8.0860    -3.9830    -5.1880 ca         1 UWX      -0.107000
     11 CAO          7.7900    -7.0880    -2.0800 c3         1 UWX       0.210900
     12 CAP         10.0850    -6.8230    -2.5850 c3         1 UWX       0.210900
     13 CAQ          7.4690    -5.8200    -2.8690 c3         1 UWX       0.096800
     14 CAR          9.7650    -5.5550    -3.3740 c3         1 UWX       0.096800
     15 CAS          2.0400    -1.2500    -0.7210 c3         1 UWX      -0.012100
     16 CAV          3.5420    -1.1890    -0.8300 ca         1 UWX      -0.023300
     17 CAW          8.6850    -2.5880    -3.2990 ca         1 UWX       0.099600
     18 CAX          6.2970    -1.0890    -1.0360 ca         1 UWX      -0.120500
     19 CAY          8.3200    -3.8390    -3.8210 ca         1 UWX      -0.047400
     20 CAZ          8.4810    -0.5850    -7.8180 c          1 UWX       0.577500
     21 CBA          8.0940    -1.9090    -8.3780 c          1 UWX       0.579500
     22 CBB          8.5790    -1.6300    -5.5170 ca         1 UWX      -0.037400
     23 CBC          8.2140    -2.8810    -6.0400 ca         1 UWX      -0.083400
     24 CBD          1.5300     0.0000     0.0000 c3         1 UWX      -0.033700
     25 NAT          8.6740    -2.4280    -1.8550 nu         1 UWX      -0.354500
     26 NBE          8.5750    -4.9210    -2.9110 nh         1 UWX      -0.372000
     27 NBF          8.7180    -0.4520    -6.4120 n          1 UWX      -0.078000
     28 NBG          7.9630    -3.0380    -7.5040 n          1 UWX      -0.086000
     29 OAE          8.5920     0.3540    -8.5320 o          1 UWX      -0.572500
     30 OAF          7.8950    -2.0290    -9.5400 o          1 UWX      -0.575500
     31 OAG          8.4700     0.1870    -1.9140 o          1 UWX      -0.550800
     32 OAH          8.6630    -0.7310     0.1460 o          1 UWX      -0.550800
     33 OAU          8.9790    -7.7210    -2.5440 os         1 UWX      -0.398600
     34 SBH          8.0520    -0.9960    -1.1580 sy         1 UWX       0.872200
     35 H1          -0.3610     0.8300     0.5950 hc         1 UWX       0.006867
     36 H2          -0.3610    -0.9300     0.4220 hc         1 UWX       0.006867
     37 H3          -0.3610     0.1000    -1.0160 hc         1 UWX       0.006867
     38 H4           3.1160     0.1300     1.4450 hc         1 UWX       0.006867
     39 H5           1.7900    -0.9420     1.9150 hc         1 UWX       0.006867
     40 H6           1.5780     0.8130     1.9900 hc         1 UWX       0.006867
     41 H7           9.2110     1.5550    -6.6600 h1         1 UWX       0.024367
     42 H8           9.9990     0.7500    -5.2950 h1         1 UWX       0.024367
     43 H9           8.2860     1.1820    -5.1980 h1         1 UWX       0.024367
     44 H10          8.3130    -5.0610    -7.8380 h1         1 UWX       0.017033
     45 H11          7.3930    -4.2390    -9.1050 h1         1 UWX       0.017033
     46 H12          6.6210    -4.6270    -7.5610 h1         1 UWX       0.017033
     47 H13          3.8670    -2.1890     1.0350 ha         1 UWX       0.118000
     48 H14          3.5140    -0.1740    -2.7150 ha         1 UWX       0.118000
     49 H15          6.3240    -2.0990     0.8510 ha         1 UWX       0.117000
     50 H16          5.9720    -0.0860    -2.8980 ha         1 UWX       0.117000
     51 H17          9.0950    -0.5230    -3.7420 ha         1 UWX       0.187000
     52 H18          7.8050    -4.9490    -5.5910 ha         1 UWX       0.127000
     53 H19          6.9630    -7.7810    -2.1790 h1         1 UWX       0.012450
     54 H20          7.9150    -6.8280    -1.0360 h1         1 UWX       0.012450
     55 H21         10.9250    -7.3230    -3.0510 h1         1 UWX       0.012450
     56 H22         10.3500    -6.5470    -1.5720 h1         1 UWX       0.012450
     57 H23          7.2030    -6.0960    -3.8830 h1         1 UWX       0.020700
     58 H24          6.6280    -5.3210    -2.4030 h1         1 UWX       0.020700
     59 H25          9.6400    -5.8140    -4.4190 h1         1 UWX       0.020700
     60 H26         10.5920    -4.8630    -3.2750 h1         1 UWX       0.020700
     61 H27          1.6520    -1.7360    -1.6080 hc         1 UWX       0.034200
     62 H28          1.7850    -1.8540     0.1410 hc         1 UWX       0.034200
     63 H29          1.8910     0.8850    -0.5110 hc         1 UWX       0.025700
     64 H30          9.0130    -3.1640    -1.2680 hn         1 UWX       0.356800
@<TRIPOS>BOND
     1     1    24 1   
     2     1    35 1   
     3     1    36 1   
     4     1    37 1   
     5     2    24 1   
     6     2    38 1   
     7     2    39 1   
     8     2    40 1   
     9     3    27 1   
    10     3    41 1   
    11     3    42 1   
    12     3    43 1   
    13     4    28 1   
    14     4    44 1   
    15     4    45 1   
    16     4    46 1   
    17     5     7 ar  
    18     5    16 ar  
    19     5    47 1   
    20     6     8 ar  
    21     6    16 ar  
    22     6    48 1   
    23     7    18 ar  
    24     7    49 1   
    25     8    18 ar  
    26     8    50 1   
    27     9    17 ar  
    28     9    22 ar  
    29     9    51 1   
    30    10    19 ar  
    31    10    23 ar  
    32    10    52 1   
    33    11    13 1   
    34    11    33 1   
    35    11    53 1   
    36    11    54 1   
    37    12    14 1   
    38    12    33 1   
    39    12    55 1   
    40    12    56 1   
    41    13    26 1   
    42    13    57 1   
    43    13    58 1   
    44    14    26 1   
    45    14    59 1   
    46    14    60 1   
    47    15    16 1   
    48    15    24 1   
    49    15    61 1   
    50    15    62 1   
    51    17    19 ar  
    52    17    25 1   
    53    18    34 1   
    54    19    26 1   
    55    20    21 1   
    56    20    27 1   
    57    20    29 2   
    58    21    28 1   
    59    21    30 2   
    60    22    23 ar  
    61    22    27 1   
    62    23    28 1   
    63    24    63 1   
    64    25    34 1   
    65    25    64 1   
    66    31    34 2   
    67    32    34 2   
@<TRIPOS>SUBSTRUCTURE
     1 UWX         1 TEMP              0 ****  ****    0 ROOT
