@<TRIPOS>MOLECULE
molecule
   41    43     1     0     0
SMALL
bcc


@<TRIPOS>ATOM
      1 O2           0.0000     0.0000     0.0000 oh         1 UX0      -0.554800
      2 C1           1.4280     0.0000     0.0000 c3         1 UX0       0.122100
      3 C2           1.9680     0.0000     1.4460 c3         1 UX0       0.118100
      4 O1           0.9820     0.5250     2.3360 oh         1 UX0      -0.573800
      5 C3           3.2150     0.9020     1.4490 c3         1 UX0      -0.087700
      6 C5           4.4450     0.0940     1.8680 c3         1 UX0       0.145400
      7 O            5.5720     0.9660     1.9810 oh         1 UX0      -0.607800
      8 C4           3.3890     1.4190     0.0050 c3         1 UX0      -0.082400
      9 C            1.9710     1.3170    -0.6080 c3         1 UX0       0.242500
     10 N            2.0420     1.2230    -2.0680 nu         1 UX0      -0.888900
     11 C6           0.9380     1.5320    -2.8330 ca         1 UX0       0.761200
     12 C9           1.0170     1.5590    -4.2450 ca         1 UX0      -0.348600
     13 C10          2.2100     1.2780    -4.9310 ca         1 UX0       0.179100
     14 O3           3.3390     0.9660    -4.2450 os         1 UX0      -0.351900
     15 C14          4.5110     0.6920    -5.0160 c3         1 UX0       0.130700
     16 C11          2.2210     1.3200    -6.3110 ca         1 UX0      -0.256000
     17 C12          1.0680     1.6390    -7.0190 ca         1 UX0      -0.061000
     18 C13         -0.1010     1.9160    -6.3750 ca         1 UX0      -0.222300
     19 C8          -0.1520     1.8820    -4.9760 ca         1 UX0       0.506600
     20 N2          -1.2810     2.1470    -4.3000 nb         1 UX0      -0.791000
     21 C7          -1.2960     2.1070    -2.9890 ca         1 UX0       0.738900
     22 N1          -0.2300     1.8040    -2.2660 nb         1 UX0      -0.816000
     23 H2          -0.3140    -0.8880    -0.0400 ho         1 UX0       0.390000
     24 H1           1.8130    -0.8530    -0.5460 h1         1 UX0       0.038700
     25 HA           2.2400    -1.0070     1.7380 h1         1 UX0       0.027700
     26 H            1.3620     2.1580    -0.3000 h1         1 UX0       0.110700
     27 HB           0.8150    -0.0980     3.0230 ho         1 UX0       0.397000
     28 H3           3.0650     1.7360     2.1240 hc         1 UX0       0.091700
     29 H51C         4.2570    -0.3790     2.8250 h1         1 UX0       0.020200
     30 H52C         4.6490    -0.6660     1.1240 h1         1 UX0       0.020200
     31 H41C         3.7250     2.4480     0.0110 hc         1 UX0       0.058200
     32 H42C         4.0820     0.7890    -0.5400 hc         1 UX0       0.058200
     33 HC           6.2470     0.5440     2.4860 ho         1 UX0       0.403000
     34 HD           2.8970     0.9490    -2.5110 hn         1 UX0       0.471800
     35 H11          3.1370     1.1050    -6.8470 ha         1 UX0       0.133000
     36 H141         5.3330     0.4540    -4.3510 h1         1 UX0       0.046367
     37 H142         4.3230    -0.1490    -5.6720 h1         1 UX0       0.046367
     38 H143         4.7660     1.5620    -5.6080 h1         1 UX0       0.046367
     39 H12          1.0990     1.6670    -8.1010 ha         1 UX0       0.132000
     40 H13         -0.9890     2.1630    -6.9440 ha         1 UX0       0.152000
     41 H7          -2.2260     2.3210    -2.4760 h5         1 UX0       0.056100
@<TRIPOS>BOND
     1     1     2 1
     2     2     3 1
     3     2     9 1
     4     3     4 1
     5     3     5 1
     6     5     6 1
     7     5     8 1
     8     6     7 1
     9     8     9 1
    10     9    10 1
    11    10    11 1
    12    11    12 ar
    13    11    22 ar
    14    12    13 ar
    15    12    19 ar
    16    13    14 1
    17    13    16 ar
    18    14    15 1
    19    16    17 ar
    20    17    18 ar
    21    18    19 ar
    22    19    20 ar
    23    20    21 ar
    24    21    22 ar
    25     1    23 1
    26     2    24 1
    27     3    25 1
    28     9    26 1
    29     4    27 1
    30     5    28 1
    31     6    29 1
    32     6    30 1
    33     8    31 1
    34     8    32 1
    35     7    33 1
    36    10    34 1
    37    16    35 1
    38    15    36 1
    39    15    37 1
    40    15    38 1
    41    17    39 1
    42    18    40 1
    43    21    41 1
@<TRIPOS>SUBSTRUCTURE
     1 UX0         1 TEMP              0 ****  ****    0 ROOT
