@<TRIPOS>MOLECULE
UX4
   60    63     1     0     0
SMALL
bcc


@<TRIPOS>ATOM
      1 O29          0.0000     0.0000     0.0000 o          1 UX4      -0.658000
      2 C27          1.2150     0.0000     0.0000 c          1 UX4       0.703100
      3 O28          1.8890     0.0000     1.1660 os         1 UX4      -0.424900
      4 C30          1.0980     0.0010     2.3840 c3         1 UX4       0.241400
      5 C31          2.0300     0.0020     3.5970 c3         1 UX4      -0.006100
      6 N23          1.8890    -0.0060    -1.1670 n          1 UX4      -0.143800
      7 C22          1.1670    -0.0130    -2.4470 c3         1 UX4       0.038000
      8 C26          1.6490     1.1770    -3.2870 c3         1 UX4       0.038000
      9 C24          3.3590    -0.0010    -1.1830 c3         1 UX4       0.038000
     10 C25          3.8360     1.1920    -2.0210 c3         1 UX4       0.038000
     11 N20          3.1180     1.1760    -3.3030 n          1 UX4      -0.175800
     12 C19          3.7960     1.1730    -4.4680 c          1 UX4       0.570100
     13 O21          5.0080     1.2770    -4.4670 o          1 UX4      -0.665100
     14 N18          3.1310     1.0560    -5.6340 ns         1 UX4      -0.009100
     15 C7           3.8380     0.9440    -6.8320 cc         1 UX4       0.006500
     16 C6           3.2740     0.8300    -8.0290 cd         1 UX4      -0.101300
     17 C15          1.7790     0.8050    -8.2260 c3         1 UX4       0.055200
     18 C2           4.2100     0.7290    -9.1320 cd         1 UX4      -0.228600
     19 C1           3.9650     0.5960   -10.5350 c          1 UX4       0.640100
     20 O16          2.8260     0.5370   -10.9640 o          1 UX4      -0.695500
     21 S8           5.5870     0.9450    -6.9560 ss         1 UX4      -0.136800
     22 C9           5.5330     0.7750    -8.7050 cc         1 UX4       0.235300
     23 N3           6.5310     0.6970    -9.6120 nc         1 UX4      -0.487100
     24 C4           6.2930     0.5890   -10.8840 cd         1 UX4       0.288900
     25 N5           5.0160     0.5390   -11.3680 n          1 UX4       0.054700
     26 C11          7.4310     0.5180   -11.8760 c3         1 UX4      -0.058700
     27 C12          7.5420    -0.9110   -12.4070 c3         1 UX4      -0.026400
     28 C13          6.6440    -1.1160   -13.6130 c3         1 UX4      -0.060700
     29 C17          6.9030    -2.5090   -14.1930 c3         1 UX4       0.007900
     30 C14          5.1720    -0.9950   -13.2620 c3         1 UX4      -0.041400
     31 C10          4.8250     0.4270   -12.8210 c3         1 UX4       0.009000
     32 H1           0.4740     0.8860     2.4080 h1         1 UX4       0.010700
     33 H2           0.4730    -0.8830     2.4090 h1         1 UX4       0.010700
     34 H3           1.4530    -0.1730     4.4970 hc         1 UX4       0.010700
     35 H4           2.7700    -0.7820     3.4850 hc         1 UX4       0.010700
     36 H5           2.5290     0.9610     3.6690 hc         1 UX4       0.010700
     37 H6           0.1040     0.0790    -2.2640 h1         1 UX4       0.041450
     38 H7           1.3730    -0.9370    -2.9750 h1         1 UX4       0.041450
     39 H8           1.2920     2.1000    -2.8470 h1         1 UX4       0.037450
     40 H9           1.2760     1.0810    -4.3000 h1         1 UX4       0.037450
     41 H10          3.7200    -0.9220    -1.6240 h1         1 UX4       0.041450
     42 H11          3.7320     0.0940    -0.1700 h1         1 UX4       0.041450
     43 H12          4.9010     1.1080    -2.1990 h1         1 UX4       0.037450
     44 H13          3.6200     2.1140    -1.4950 h1         1 UX4       0.037450
     45 H14          2.1310     1.0900    -5.6440 hn         1 UX4       0.181500
     46 H15          1.3870    -0.1500    -7.8980 hc         1 UX4       0.019367
     47 H16          1.5500     0.9480    -9.2750 hc         1 UX4       0.019367
     48 H17          1.3260     1.6000    -7.6460 hc         1 UX4       0.019367
     49 H20          8.3560     0.7930   -11.3850 hc         1 UX4       0.039200
     50 H21          7.2360     1.1950   -12.6990 hc         1 UX4       0.039200
     51 H22          8.5680    -1.1030   -12.6930 hc         1 UX4       0.028200
     52 H23          7.2490    -1.6020   -11.6260 hc         1 UX4       0.028200
     53 H24          6.8870    -0.3700   -14.3600 hc         1 UX4       0.027700
     54 H25          6.3290    -2.6340   -15.1030 hc         1 UX4       0.005700
     55 H26          6.6050    -3.2610   -13.4720 hc         1 UX4       0.005700
     56 H27          7.9580    -2.6180   -14.4130 hc         1 UX4       0.005700
     57 H28          4.9420    -1.6810   -12.4570 hc         1 UX4       0.031700
     58 H29          4.5790    -1.2490   -14.1330 hc         1 UX4       0.031700
     59 H30          3.7910     0.6390   -13.0660 h1         1 UX4       0.051200
     60 H31          5.4750     1.1310   -13.3260 h1         1 UX4       0.051200
@<TRIPOS>BOND
     1     1     2 2   
     2     2     3 1   
     3     2     6 1   
     4     3     4 1   
     5     4     5 1   
     6     4    32 1   
     7     4    33 1   
     8     5    34 1   
     9     5    35 1   
    10     5    36 1   
    11     6     7 1   
    12     6     9 1   
    13     7     8 1   
    14     7    37 1   
    15     7    38 1   
    16     8    11 1   
    17     8    39 1   
    18     8    40 1   
    19     9    10 1   
    20     9    41 1   
    21     9    42 1   
    22    10    11 1   
    23    10    43 1   
    24    10    44 1   
    25    11    12 1   
    26    12    13 2   
    27    12    14 1   
    28    14    15 1   
    29    14    45 1   
    30    15    16 2   
    31    15    21 1   
    32    16    17 1   
    33    16    18 1   
    34    17    46 1   
    35    17    47 1   
    36    17    48 1   
    37    18    19 1   
    38    18    22 2   
    39    19    20 2   
    40    19    25 1   
    41    21    22 1   
    42    22    23 1   
    43    23    24 2   
    44    24    25 1   
    45    24    26 1   
    46    25    31 1   
    47    26    27 1   
    48    26    49 1   
    49    26    50 1   
    50    27    28 1   
    51    27    51 1   
    52    27    52 1   
    53    28    29 1   
    54    28    30 1   
    55    28    53 1   
    56    29    54 1   
    57    29    55 1   
    58    29    56 1   
    59    30    31 1   
    60    30    57 1   
    61    30    58 1   
    62    31    59 1   
    63    31    60 1   
@<TRIPOS>SUBSTRUCTURE
     1 UX4         1 TEMP              0 ****  ****    0 ROOT
