@<TRIPOS>MOLECULE
molecule
   31    33     1     0     0
SMALL
bcc


@<TRIPOS>ATOM
      1 N1           0.0000     0.0000     0.0000 nb         1 UXH      -0.655000
      2 Cl1          4.6450    -0.0000    -2.2860 cl         1 UXH      -0.038400
      3 C2           1.3230     0.0000     0.0000 ca         1 UXH       0.415600
      4 C3           1.9810     0.0000     1.2860 ca         1 UXH      -0.183300
      5 C4           1.2640     0.0010     2.5460 ca         1 UXH      -0.079000
      6 C5          -0.1110     0.0010     2.4250 ca         1 UXH      -0.093300
      7 C6          -0.6810    -0.0010     1.1390 ca         1 UXH       0.293800
      8 C7           2.2100    -0.0000    -1.1620 ca         1 UXH       0.141300
      9 C8           3.5740    -0.0000    -0.9190 ca         1 UXH       0.015400
     10 C9           4.1410    -0.0000     0.3600 ca         1 UXH       0.224600
     11 C10          3.3430    -0.0000     1.5020 ca         1 UXH       0.012800
     12 N11          1.7060     0.0010    -2.4580 nv         1 UXH      -0.967200
     13 N13          5.5260    -0.0010     0.4940 nv         1 UXH      -0.982200
     14 C14         -2.1580    -0.0010     1.0490 c          1 UXH       0.413600
     15 N15         -2.7590    -0.0020    -0.1570 nz         1 UXH      -0.670400
     16 O16         -2.8280     0.0010     2.0630 o          1 UXH      -0.414100
     17 C17          2.3380     0.0010     3.5420 c          1 UXH       0.317800
     18 N18          3.5270    -0.0000     2.8820 n          1 UXH      -0.147300
     19 O19          2.1900     0.0020     4.7500 o          1 UXH      -0.272000
     20 C20          4.8360    -0.0010     3.5410 c3         1 UXH       0.047600
     21 H5          -0.7420    -0.0000     3.3060 ha         1 UXH       0.186000
     22 HN11         1.5360    -0.8650    -2.9300 hn         1 UXH       0.446800
     23 HN1A         1.5360     0.8680    -2.9280 hn         1 UXH       0.446800
     24 HN13         6.0260     0.8650     0.5170 hn         1 UXH       0.451800
     25 HN1B         6.0250    -0.8680     0.5170 hn         1 UXH       0.451800
     26 HN15        -3.7530    -0.0030    -0.0350 hn         1 UXH       0.481467
     27 HN1C        -2.4850    -0.8190    -0.6660 hn         1 UXH       0.481467
     28 H20          5.3880    -0.8860     3.2470 h1         1 UXH       0.063367
     29 H20A         5.3890     0.8830     3.2470 h1         1 UXH       0.063367
     30 H20B         4.7000    -0.0010     4.6160 h1         1 UXH       0.063367
     31 H153        -2.4870     0.8150    -0.6670 hn         1 UXH       0.481467
@<TRIPOS>BOND
     1     7     1 ar
     2     1     3 ar
     3     9     2 1
     4     4     3 ar
     5     3     8 ar
     6     5     4 ar
     7    11     4 ar
     8    17     5 1
     9     6     5 ar
    10     6     7 ar
    11     6    21 1
    12     7    14 1
    13     9     8 ar
    14     8    12 1
    15    10     9 ar
    16    11    10 ar
    17    10    13 1
    18    18    11 1
    19    12    22 1
    20    12    23 1
    21    13    24 1
    22    13    25 1
    23    16    14 2
    24    14    15 1
    25    15    26 1
    26    15    27 1
    27    19    17 2
    28    17    18 1
    29    20    18 1
    30    20    28 1
    31    20    29 1
    32    20    30 1
    33    31    15 1
@<TRIPOS>SUBSTRUCTURE
     1 UXH         1 TEMP              0 ****  ****    0 ROOT
