@<TRIPOS>MOLECULE
UZ9
   87    90     1     0     0
SMALL
bcc


@<TRIPOS>ATOM
      1 C1          1.6830    0.3710   -0.4300 c3        1 UZ9     -0.070400
      2 C2          2.0550    1.5660    0.4170 c3        1 UZ9     -0.182400
      3 C3          1.4460    1.4660    1.7860 c         1 UZ9      0.569100
      4 C4         -0.0160    1.1330    1.8170 c3        1 UZ9     -0.181400
      5 C5         -0.3870   -0.0270    0.9040 c3        1 UZ9     -0.047700
      6 C6         -1.8980   -0.2110    0.8980 c3        1 UZ9     -0.074400
      7 N          -7.6400    3.8330  -13.4620 n4        1 UZ9     -0.829600
      8 CA         -6.8540    4.9750  -12.8910 c3        1 UZ9     -0.015500
      9 CB         -7.6900    6.2570  -12.7900 c3        1 UZ9     -0.082400
     10 CG         -7.2470    7.1570  -11.6480 c3        1 UZ9     -0.090400
     11 CD         -8.0220    6.8880  -10.3700 c3        1 UZ9     -0.111400
     12 CE         -7.1940    7.0590   -9.1010 c3        1 UZ9      0.118800
     13 NZ         -6.3070    5.8970   -8.8160 n4        1 UZ9     -0.701800
     14 C24        -5.7670    5.8510   -7.4130 c         1 UZ9      0.548100
     15 O2         -6.1140    6.7400   -6.6480 o         1 UZ9     -0.433100
     16 C23        -4.8580    4.6870   -7.1340 c3        1 UZ9     -0.155400
     17 C22        -4.2460    4.8110   -5.7510 c3        1 UZ9     -0.083400
     18 C20        -3.3160    3.6340   -5.4550 c3        1 UZ9     -0.051700
     19 C21        -1.9840    3.8580   -6.1460 c3        1 UZ9     -0.098100
     20 C17        -3.1500    3.4790   -3.9470 c3        1 UZ9     -0.058700
     21 C16        -4.4990    3.2220   -3.2390 c3        1 UZ9     -0.079400
     22 C13        -2.2500    2.3160   -3.4580 c3        1 UZ9     -0.044000
     23 C12        -0.7560    2.5970   -3.4180 c3        1 UZ9     -0.065400
     24 C18        -2.5370    1.0620   -4.2640 c3        1 UZ9     -0.085100
     25 C14        -2.7150    2.1990   -1.9820 c3        1 UZ9     -0.062700
     26 C15        -4.2320    2.2790   -2.0640 c3        1 UZ9     -0.073400
     27 C8         -2.0760    1.0220   -1.2750 c3        1 UZ9     -0.048700
     28 C7         -2.6180    0.8800    0.1380 c3        1 UZ9     -0.074400
     29 C9         -0.5560    1.2560   -1.2540 c3        1 UZ9     -0.046700
     30 C11        -0.0130    1.5110   -2.6550 c3        1 UZ9     -0.075400
     31 C10         0.1740    0.1150   -0.5260 c3        1 UZ9     -0.039000
     32 C19         0.0100   -1.2150   -1.2570 c3        1 UZ9     -0.090100
     33 O1          2.0950    1.6800    2.8140 o         1 UZ9     -0.526100
     34 C          -6.3350    4.5540  -11.4820 c         1 UZ9      0.902600
     35 OXT        -7.1390    3.9320  -10.7300 o         1 UZ9     -0.799300
     36 O          -5.1750    4.9140  -11.1610 o         1 UZ9     -0.799300
     37 H1C1        2.1110    0.4990   -1.4580 hc        1 UZ9      0.050200
     38 H1C2        2.1640   -0.5450    0.0110 hc        1 UZ9      0.050200
     39 H2C1        3.1720    1.6370    0.5010 hc        1 UZ9      0.069700
     40 H2C2        1.6910    2.5150   -0.0600 hc        1 UZ9      0.069700
     41 H4C1       -0.3220    0.8820    2.8680 hc        1 UZ9      0.070200
     42 H4C2       -0.5760    2.0590    1.5180 hc        1 UZ9      0.070200
     43 H5          0.0710   -0.9600    1.3450 hc        1 UZ9      0.056700
     44 H6C1       -2.2690   -0.2310    1.9570 hc        1 UZ9      0.046700
     45 H6C2       -2.1410   -1.2070    0.4410 hc        1 UZ9      0.046700
     46 HA         -5.9650    5.1550  -13.5630 hx        1 UZ9      0.119700
     47 HBC1       -8.7800    6.0170  -12.6610 hc        1 UZ9      0.062200
     48 HBC2       -7.5860    6.8200  -13.7570 hc        1 UZ9      0.062200
     49 HGC1       -6.1420    7.0460  -11.4830 hc        1 UZ9      0.074700
     50 HGC2       -7.4180    8.2250  -11.9570 hc        1 UZ9      0.074700
     51 HDC1       -8.4680    5.8540  -10.3950 hc        1 UZ9      0.083200
     52 HDC2       -8.8780    7.6130  -10.2960 hc        1 UZ9      0.083200
     53 HEC1       -7.8890    7.1840   -8.2190 hx        1 UZ9      0.103200
     54 HEC2       -6.5480    7.9790   -9.1690 hx        1 UZ9      0.103200
     55 HZ         -6.8160    5.0100   -9.0140 hn        1 UZ9      0.494300
     56 H231       -5.4570    3.7370   -7.2080 hc        1 UZ9      0.105200
     57 H232       -4.0510    4.6400   -7.9180 hc        1 UZ9      0.105200
     58 H221       -5.0730    4.8590   -4.9940 hc        1 UZ9      0.067200
     59 H222       -3.6710    5.7720   -5.6740 hc        1 UZ9      0.067200
     60 H20        -3.7860    2.6940   -5.8620 hc        1 UZ9      0.053700
     61 H211       -2.1320    4.2370   -7.1860 hc        1 UZ9      0.040700
     62 H212       -1.4100    2.9020   -6.2100 hc        1 UZ9      0.040700
     63 H213       -1.3690    4.6020   -5.5840 hc        1 UZ9      0.040700
     64 H17        -2.7120    4.4370   -3.5520 hc        1 UZ9      0.053700
     65 H161       -4.9320    4.1860   -2.8750 hc        1 UZ9      0.037200
     66 H162       -5.2320    2.7590   -3.9460 hc        1 UZ9      0.037200
     67 H121       -0.3400    2.6550   -4.4570 hc        1 UZ9      0.040700
     68 H122       -0.5770    3.5910   -2.9280 hc        1 UZ9      0.040700
     69 H181       -2.0220    0.1720   -3.8290 hc        1 UZ9      0.036700
     70 H182       -2.1730    1.1830   -5.3140 hc        1 UZ9      0.036700
     71 H183       -3.6350    0.8560   -4.2870 hc        1 UZ9      0.036700
     72 H14        -2.3670    3.1320   -1.4480 hc        1 UZ9      0.048700
     73 H151       -4.6690    2.6740   -1.1150 hc        1 UZ9      0.049200
     74 H152       -4.6770    1.2710   -2.2510 hc        1 UZ9      0.049200
     75 H8         -2.3070    0.0750   -1.8370 hc        1 UZ9      0.056700
     76 H7C1       -3.7130    0.6410    0.0870 hc        1 UZ9      0.041700
     77 H7C2       -2.5180    1.8560    0.6800 hc        1 UZ9      0.041700
     78 H9         -0.3770    2.1960   -0.6540 hc        1 UZ9      0.046700
     79 H111       -0.0390    0.5600   -3.2490 hc        1 UZ9      0.045200
     80 H112        1.0620    1.8260   -2.5760 hc        1 UZ9      0.045200
     81 H191       -1.0640   -1.4550   -1.4350 hc        1 UZ9      0.038033
     82 H192        0.4560   -2.0420   -0.6520 hc        1 UZ9      0.038033
     83 H193        0.5350   -1.1840   -2.2430 hc        1 UZ9      0.038033
     84 HN2        -8.1840    3.4150  -12.6880 hn        1 UZ9      0.458800
     85 H2         -6.9990    3.1270  -13.8290 hn        1 UZ9      0.458800
     86 HZ3        -5.5030    5.9020   -9.4780 hn        1 UZ9      0.494300
     87 HN1        -8.2700    4.1480  -14.1990 hn        1 UZ9      0.458800
@<TRIPOS>BOND
     1    1    2 1   
     2    1   31 1   
     3    1   37 1   
     4    1   38 1   
     5    2    3 1   
     6    2   39 1   
     7    2   40 1   
     8    3    4 1   
     9    3   33 2   
    10    4    5 1   
    11    4   41 1   
    12    4   42 1   
    13    5    6 1   
    14    5   31 1   
    15    5   43 1   
    16    6   28 1   
    17    6   44 1   
    18    6   45 1   
    19    7    8 1   
    20    7   84 1   
    21    7   85 1   
    22    7   87 1   
    23    8    9 1   
    24    8   34 1   
    25    8   46 1   
    26    9   10 1   
    27    9   47 1   
    28    9   48 1   
    29   10   11 1   
    30   10   49 1   
    31   10   50 1   
    32   11   12 1   
    33   11   51 1   
    34   11   52 1   
    35   12   13 1   
    36   12   53 1   
    37   12   54 1   
    38   13   14 1   
    39   13   55 1   
    40   13   86 1   
    41   14   15 2   
    42   14   16 1   
    43   16   17 1   
    44   16   56 1   
    45   16   57 1   
    46   17   18 1   
    47   17   58 1   
    48   17   59 1   
    49   18   19 1   
    50   18   20 1   
    51   18   60 1   
    52   19   61 1   
    53   19   62 1   
    54   19   63 1   
    55   20   21 1   
    56   20   22 1   
    57   20   64 1   
    58   21   26 1   
    59   21   65 1   
    60   21   66 1   
    61   22   23 1   
    62   22   24 1   
    63   22   25 1   
    64   23   30 1   
    65   23   67 1   
    66   23   68 1   
    67   24   69 1   
    68   24   70 1   
    69   24   71 1   
    70   25   26 1   
    71   25   27 1   
    72   25   72 1   
    73   26   73 1   
    74   26   74 1   
    75   27   28 1   
    76   27   29 1   
    77   27   75 1   
    78   28   76 1   
    79   28   77 1   
    80   29   30 1   
    81   29   31 1   
    82   29   78 1   
    83   30   79 1   
    84   30   80 1   
    85   31   32 1   
    86   32   81 1   
    87   32   82 1   
    88   32   83 1   
    89   34   35 1   
    90   34   36 1   
@<TRIPOS>SUBSTRUCTURE
     1 UZ9         1 TEMP              0 ****  ****    0 ROOT
