@<TRIPOS>MOLECULE
molecule
   86    89     1     0     0
SMALL
bcc


@<TRIPOS>ATOM
      1 C1           1.5280     0.0000     0.0000 c3         1 UZ9      -0.066400
      2 C2           2.0530     1.2720     0.6700 c3         1 UZ9      -0.183400
      3 C3           1.4300     1.3830     2.0440 c          1 UZ9       0.568100
      4 C4          -0.0720     1.2720     2.1590 c3         1 UZ9      -0.182400
      5 C5          -0.5280     0.0000     1.4360 c3         1 UZ9      -0.049700
      6 C6          -2.0590    -0.0340     1.4080 c3         1 UZ9      -0.078400
      7 N           -9.6400     7.3320   -13.3870 nz         1 UZ9      -0.790600
      8 CA          -8.3690     7.1590   -14.1010 c3         1 UZ9      -0.017500
      9 CB          -7.5470     6.0650   -13.4200 c3         1 UZ9      -0.091400
     10 CG          -7.2660     6.4630   -11.9700 c3         1 UZ9      -0.098400
     11 CD          -6.4430     5.3690   -11.2890 c3         1 UZ9      -0.097400
     12 CE          -6.1620     5.7670    -9.8400 c3         1 UZ9       0.112000
     13 NZ          -5.3740     4.7190    -9.1870 ns         1 UZ9      -0.591900
     14 C24         -5.0060     4.8540    -7.8980 c          1 UZ9       0.657100
     15 O2          -5.3280     5.8450    -7.2770 o          1 UZ9      -0.609100
     16 C23         -4.1970     3.7760    -7.2270 c3         1 UZ9      -0.161400
     17 C22         -3.9150     4.1740    -5.7780 c3         1 UZ9      -0.064400
     18 C20         -3.0920     3.0790    -5.0970 c3         1 UZ9      -0.077700
     19 C21         -1.7690     2.8990    -5.8420 c3         1 UZ9      -0.096100
     20 C17         -2.8120     3.4780    -3.6480 c3         1 UZ9      -0.050700
     21 C16         -4.1390     3.5990    -2.8580 c3         1 UZ9      -0.080400
     22 C13         -2.0200     2.3830    -2.9410 c3         1 UZ9      -0.063000
     23 C12         -0.4990     2.4940    -2.9400 c3         1 UZ9      -0.063400
     24 C18         -2.4370     1.0130    -3.4770 c3         1 UZ9      -0.107100
     25 C14         -2.5130     2.4780    -1.4720 c3         1 UZ9      -0.067700
     26 C15         -4.0260     2.6180    -1.6600 c3         1 UZ9      -0.077400
     27 C8          -2.0480     1.2290    -0.7490 c3         1 UZ9      -0.065700
     28 C7          -2.5800     1.2100     0.6850 c3         1 UZ9      -0.078400
     29 C9          -0.5120     1.2530    -0.7350 c3         1 UZ9      -0.056700
     30 C11          0.0710     1.3090    -2.1430 c3         1 UZ9      -0.079400
     31 C10          0.0000     0.0000     0.0000 c3         1 UZ9      -0.059000
     32 C19         -0.5050    -1.2390    -0.7410 c3         1 UZ9      -0.087100
     33 O1           2.1170     1.5520     3.0230 o          1 UZ9      -0.525100
     34 C           -8.6450     6.7680   -15.5290 c          1 UZ9       0.865600
     35 OXT         -9.6380     6.1340   -15.8000 o          1 UZ9      -0.773300
     36 O           -7.7880     7.1190   -16.5000 o          1 UZ9      -0.773300
     37 H1C1         1.8850    -0.0400    -1.0220 hc         1 UZ9       0.050700
     38 H1C2         1.8850    -0.8650     0.5450 hc         1 UZ9       0.050700
     39 H2C1         3.1300     1.2160     0.7620 hc         1 UZ9       0.068700
     40 H2C2         1.7770     2.1350     0.0760 hc         1 UZ9       0.068700
     41 H4C1        -0.5360     2.1360     1.6980 hc         1 UZ9       0.072200
     42 H4C2        -0.3530     1.2150     3.2030 hc         1 UZ9       0.072200
     43 H5          -0.1540    -0.8710     1.9610 hc         1 UZ9       0.058700
     44 H6C1        -2.4380    -0.0460     2.4220 hc         1 UZ9       0.045700
     45 H6C2        -2.3900    -0.9210     0.8820 hc         1 UZ9       0.045700
     46 HA          -7.8150     8.0900   -14.0820 hx         1 UZ9       0.105700
     47 HBC1        -6.6090     5.9370   -13.9470 hc         1 UZ9       0.087200
     48 HBC2        -8.1000     5.1340   -13.4380 hc         1 UZ9       0.087200
     49 HGC1        -6.7120     7.3940   -11.9520 hc         1 UZ9       0.033200
     50 HGC2        -8.2030     6.5910   -11.4430 hc         1 UZ9       0.033200
     51 HDC1        -6.9960     4.4380   -11.3060 hc         1 UZ9       0.055200
     52 HDC2        -5.5050     5.2410   -11.8160 hc         1 UZ9       0.055200
     53 HEC1        -7.1000     5.8940    -9.3120 h1         1 UZ9       0.051200
     54 HEC2        -5.6090     6.6990    -9.8220 h1         1 UZ9       0.051200
     55 HZ          -5.0840     3.9150    -9.7080 hn         1 UZ9       0.314500
     56 H231        -4.7510     2.8450    -7.2450 hc         1 UZ9       0.062200
     57 H232        -3.2590     3.6470    -7.7550 hc         1 UZ9       0.062200
     58 H221        -4.8520     4.3020    -5.2500 hc         1 UZ9       0.060200
     59 H222        -3.3610     5.1050    -5.7610 hc         1 UZ9       0.060200
     60 H20         -3.6460     2.1480    -5.1150 hc         1 UZ9       0.058700
     61 H211        -1.8810     3.2370    -6.8650 hc         1 UZ9       0.036033
     62 H212        -0.9970     3.4800    -5.3530 hc         1 UZ9       0.036033
     63 H213        -1.4910     1.8520    -5.8370 hc         1 UZ9       0.036033
     64 H17         -2.2690     4.4150    -3.6100 hc         1 UZ9       0.057700
     65 H161        -4.2650     4.6120    -2.4970 hc         1 UZ9       0.046200
     66 H162        -4.9730     3.3170    -3.4900 hc         1 UZ9       0.046200
     67 H121        -0.1310     2.4580    -3.9580 hc         1 UZ9       0.044700
     68 H122        -0.2020     3.4240    -2.4710 hc         1 UZ9       0.044700
     69 H181        -2.7520     0.3840    -2.6540 hc         1 UZ9       0.042033
     70 H182        -1.5970     0.5520    -3.9830 hc         1 UZ9       0.042033
     71 H183        -3.2570     1.1320    -4.1750 hc         1 UZ9       0.042033
     72 H14         -2.1080     3.3640    -0.9960 hc         1 UZ9       0.056700
     73 H151        -4.4830     3.0440    -0.7740 hc         1 UZ9       0.045200
     74 H152        -4.4700     1.6610    -1.9070 hc         1 UZ9       0.045200
     75 H8          -2.3940     0.3500    -1.2790 hc         1 UZ9       0.068700
     76 H7C1        -2.2420     2.0970     1.2060 hc         1 UZ9       0.044700
     77 H7C2        -3.6630     1.1870     0.6660 hc         1 UZ9       0.044700
     78 H9          -0.1840     2.1310    -0.1910 hc         1 UZ9       0.050700
     79 H111        -0.1690     0.3880    -2.6610 hc         1 UZ9       0.044700
     80 H112         1.1470     1.4140    -2.0760 hc         1 UZ9       0.044700
     81 H191        -1.5820    -1.1850    -0.8450 hc         1 UZ9       0.038367
     82 H192        -0.2410    -2.1280    -0.1810 hc         1 UZ9       0.038367
     83 H193        -0.0500    -1.2830    -1.7240 hc         1 UZ9       0.038367
     84 HN2        -10.0000     6.4360   -13.1240 hn         1 UZ9       0.439467
     85 H2         -10.2980     7.7930   -13.9830 hn         1 UZ9       0.439467
     86 HN1         -9.4900     7.8850   -12.5660 hn         1 UZ9       0.439467
@<TRIPOS>BOND
     1     1     2 1
     2     1    31 1
     3     1    37 1
     4     1    38 1
     5     2     3 1
     6     2    39 1
     7     2    40 1
     8     3     4 1
     9     3    33 2
    10     4     5 1
    11     4    41 1
    12     4    42 1
    13     5     6 1
    14     5    31 1
    15     5    43 1
    16     6    28 1
    17     6    44 1
    18     6    45 1
    19     7     8 1
    20     7    86 1
    21     7    84 1
    22     8     9 1
    23     8    34 1
    24     8    46 1
    25     9    10 1
    26     9    47 1
    27     9    48 1
    28    10    11 1
    29    10    49 1
    30    10    50 1
    31    11    12 1
    32    11    51 1
    33    11    52 1
    34    12    13 1
    35    12    53 1
    36    12    54 1
    37    13    14 1
    38    13    55 1
    39    14    15 2
    40    14    16 1
    41    16    17 1
    42    16    56 1
    43    16    57 1
    44    17    18 1
    45    17    58 1
    46    17    59 1
    47    18    19 1
    48    18    20 1
    49    18    60 1
    50    19    61 1
    51    19    62 1
    52    19    63 1
    53    20    21 1
    54    20    22 1
    55    20    64 1
    56    21    26 1
    57    21    65 1
    58    21    66 1
    59    22    23 1
    60    22    24 1
    61    22    25 1
    62    23    30 1
    63    23    67 1
    64    23    68 1
    65    24    69 1
    66    24    70 1
    67    24    71 1
    68    25    26 1
    69    25    27 1
    70    25    72 1
    71    26    73 1
    72    26    74 1
    73    27    28 1
    74    27    29 1
    75    27    75 1
    76    28    76 1
    77    28    77 1
    78    29    30 1
    79    29    31 1
    80    29    78 1
    81    30    79 1
    82    30    80 1
    83    31    32 1
    84    32    81 1
    85    32    82 1
    86    32    83 1
    87    34    35 1
    88    34    36 1
    89    85     7 1
@<TRIPOS>SUBSTRUCTURE
     1 UZ9         1 TEMP              0 ****  ****    0 ROOT
