@<TRIPOS>MOLECULE
molecule
   34    35     1     0     0
SMALL
bcc


@<TRIPOS>ATOM
      1 P            0.0000     0.0000     0.0000 p5         1 UZR       1.199900
      2 N1           5.8490     1.3230     2.7190 n          1 UZR      -0.354000
      3 C2           6.9630     2.0770     2.6880 c          1 UZR       0.816500
      4 O2           7.7370     1.9640     1.7580 o          1 UZR      -0.648500
      5 N3           7.2330     2.9540     3.6730 ns         1 UZR      -0.563500
      6 C4           6.3840     3.0910     4.7120 c          1 UZR       0.707700
      7 O4           6.6270     3.8850     5.6040 o          1 UZR      -0.638500
      8 C5           5.2070     2.3040     4.7560 cc         1 UZR      -0.342200
      9 C6           4.9620     1.4320     3.7550 cd         1 UZR       0.058600
     10 C1'          5.5790     0.3820     1.6290 c3         1 UZR       0.326500
     11 C2'          5.6110    -1.0770     2.1490 c3         1 UZR       0.045500
     12 C3'          4.7230    -1.8100     1.1140 c3         1 UZR       0.090100
     13 N3'          6.9770    -1.6080     2.1340 n2         1 UZR      -0.271200
     14 O3'          5.5310    -2.4460     0.1220 oh         1 UZR      -0.582800
     15 C4'          3.8750    -0.6880     0.4830 c3         1 UZR       0.121100
     16 N4'          7.1890    -2.6270     2.5600 n1         1 UZR       0.183000
     17 O4'          4.2280     0.5380     1.1450 os         1 UZR      -0.390600
     18 C5'          2.3880    -0.9810     0.6880 c3         1 UZR       0.193400
     19 N5'          7.4200    -3.6440     2.9800 n2         1 UZR      -0.507400
     20 O5'          1.6100     0.0000     0.0000 os         1 UZR      -0.568200
     21 H3           8.0750     3.4940     3.6340 hn         1 UZR       0.357500
     22 H5           4.5220     2.3990     5.5900 ha         1 UZR       0.177000
     23 H6           4.0590     0.8340     3.7600 h4         1 UZR       0.180000
     24 H1'          6.2880     0.5120     0.8210 h2         1 UZR       0.130700
     25 H2'          5.1760    -1.1410     3.1390 h1         1 UZR       0.062700
     26 H3'          4.0840    -2.5310     1.6090 h1         1 UZR       0.048700
     27 HO3'         5.2030    -3.3140    -0.0410 ho         1 UZR       0.405000
     28 H4'          4.0980    -0.6110    -0.5750 h1         1 UZR       0.090700
     29 H5'          2.0720    -0.5910     1.6480 h1         1 UZR       0.045200
     30 H5''         2.2240    -2.0520     0.6610 h1         1 UZR       0.045200
     31 HN5'         6.6870    -4.2010     3.3720 hn         1 UZR       0.397400
     32 OP1         -0.4940     0.0000     1.3950 o          1 UZR      -0.605167
     33 OP2         -0.5360     1.3150    -0.7590 o          1 UZR      -0.605167
     34 OP3         -0.5360    -1.3140    -0.7590 o          1 UZR      -0.605167
@<TRIPOS>BOND
     1     1    20 1
     2     2     3 1
     3     2     9 1
     4     2    10 1
     5     3     4 2
     6     3     5 1
     7     5     6 1
     8     5    21 1
     9     6     7 2
    10     6     8 1
    11     8     9 2
    12     8    22 1
    13     9    23 1
    14    10    11 1
    15    10    17 1
    16    10    24 1
    17    11    12 1
    18    11    13 1
    19    11    25 1
    20    12    14 1
    21    12    15 1
    22    12    26 1
    23    13    16 2
    24    14    27 1
    25    15    17 1
    26    15    18 1
    27    15    28 1
    28    16    19 2
    29    18    20 1
    30    18    29 1
    31    18    30 1
    32    19    31 1
    33     1    32 1
    34     1    33 1
    35     1    34 1
@<TRIPOS>SUBSTRUCTURE
     1 UZR         1 TEMP              0 ****  ****    0 ROOT
