@<TRIPOS>MOLECULE
UZR
   34    31     1     0     0
SMALL
bcc


@<TRIPOS>ATOM
      1 P           1.4780    0.0270    2.5770 p3        1 UZR      2.436000
      2 N1          6.0510    2.3050    2.5080 n         1 UZR     -0.309000
      3 C2          7.1420    3.1770    2.3450 c2        1 UZR      0.383000
      4 O2          8.0530    2.9360    1.5180 o         1 UZR     -0.398000
      5 N3          7.1950    4.3370    3.1380 n         1 UZR     -0.374000
      6 C4          6.1990    4.6540    4.0820 c2        1 UZR      0.357000
      7 O4          6.3300    5.7020    4.7460 o         1 UZR     -0.384000
      8 C5          5.0930    3.7070    4.1950 c2        1 UZR     -0.352000
      9 C6          5.0570    2.5860    3.4180 c2        1 UZR      0.067000
     10 C1'         5.4860   -0.3600    1.4260 c1        1 UZR      0.047000
     11 C2'         5.2170   -1.3070    2.5150 c2        1 UZR     -0.129000
     12 C3'         5.3350   -2.3430   -1.3520 c1        1 UZR      0.057000
     13 N3'         5.6600   -2.5210    2.5340 n2        1 UZR     -0.202000
     14 O3'         6.5580   -1.9930   -1.5970 oh        1 UZR     -0.167000
     15 C4'         4.5360   -1.6310   -0.3750 c2        1 UZR     -0.323000
     16 N4'         5.6200   -3.3510    3.6070 n2        1 UZR      0.043000
     17 O4'         5.1200   -0.4680    0.2030 os        1 UZR     -0.048000
     18 C5'         3.2490   -2.0110   -0.1430 c2        1 UZR      0.153000
     19 N5'         4.7250   -4.0900    3.9510 n2        1 UZR     -0.148000
     20 O5'         2.4410   -1.3350    0.6960 oh        1 UZR     -0.308000
     21 H3          7.9720    4.9450    3.0080 hn        1 UZR      0.249000
     22 H5          4.3040    3.9430    4.9170 ha        1 UZR      0.171000
     23 H6          4.2290    1.8350    3.4700 h4        1 UZR      0.239000
     24 H1'         6.0200    1.4590    1.9430 hn        1 UZR      0.313000
     25 H2'         4.6330   -0.7950    3.3310 h4        1 UZR      0.224000
     26 H3'         1.7720   -3.5800    2.2980 ha        1 UZR      0.002000
     27 HO3'        6.9040   -1.2320   -1.0820 ho        1 UZR      0.181000
     28 H4'         2.1890   -3.8380    1.8270 ha        1 UZR      0.002000
     29 H5'         2.8370   -2.9040   -0.6510 h4        1 UZR      0.154000
     30 H5''        1.6410   -1.8940    0.9080 ho        1 UZR      0.311000
     31 HN5'        3.8110   -4.0770    3.5030 hn        1 UZR      0.129000
     32 OP1         2.8200    0.2770    3.1420 o         1 UZR     -1.125333
     33 OP2         0.6300    1.1230    2.1060 o         1 UZR     -1.125333
     34 OP3         0.9940   -1.3740    2.5250 o         1 UZR     -1.125333
@<TRIPOS>BOND
     1    1   32 1   
     2    1   33 1   
     3    1   34 1   
     4    2    3 1   
     5    2    9 1   
     6    2   24 1   
     7    3    4 1   
     8    3    5 1   
     9    5    6 1   
    10    5   21 1   
    11    6    7 1   
    12    6    8 1   
    13    8    9 1   
    14    8   22 1   
    15    9   23 1   
    16   10   11 1   
    17   10   17 1   
    18   11   13 1   
    19   11   25 1   
    20   12   14 1   
    21   12   15 1   
    22   13   16 1   
    23   14   27 1   
    24   15   17 1   
    25   15   18 1   
    26   16   19 1   
    27   18   20 1   
    28   18   29 1   
    29   19   31 1   
    30   20   30 1   
    31   26   28 1   
@<TRIPOS>SUBSTRUCTURE
     1 UZR         1 TEMP              0 ****  ****    0 ROOT
