@<TRIPOS>MOLECULE
molecule
   14    13     1     0     0
SMALL
bcc


@<TRIPOS>ATOM
      1 CA           0.0000     0.0000     0.0000 c3         1 H00      -0.180400
      2 CB           1.5300     0.0000     0.0000 c3         1 H00      -0.050400
      3 CG           2.0410     0.0000     1.4420 c3         1 H00       0.054700
      4 SD           3.8540    -0.0000     1.4410 sh         1 H00      -0.464900
      5 C           -0.5030     0.0000    -1.4210 c          1 H00       0.892600
      6 O            0.2820     0.0000    -2.3390 o          1 H00      -0.851800
      7 HA1         -0.3610     0.8840     0.5110 hc         1 H00       0.027700
      8 HA2         -0.3610    -0.8840     0.5110 hc         1 H00       0.027700
      9 HB1          1.8910     0.8840    -0.5110 hc         1 H00       0.061700
     10 HB2          1.8910    -0.8840    -0.5110 hc         1 H00       0.061700
     11 HG1          1.6800     0.8850     1.9530 h1         1 H00       0.042700
     12 HG2          1.6800    -0.8850     1.9530 h1         1 H00       0.042700
     13 H1           4.2980    -0.0000     2.6920 hs         1 H00       0.186800
     14 OXT         -1.8230     0.0000    -1.6650 o          1 H00      -0.851800
@<TRIPOS>BOND
     1     1     5 1
     2     1     2 1
     3     5     6 1
     4     2     3 1
     5     3     4 1
     6     1     7 1
     7     1     8 1
     8     2     9 1
     9     2    10 1
    10     3    11 1
    11     3    12 1
    12     4    13 1
    13     5    14 1
@<TRIPOS>SUBSTRUCTURE
     1 H00         1 TEMP              0 ****  ****    0 ROOT
