@<TRIPOS>MOLECULE
molecule
   83    87     1     0     0
SMALL
bcc


@<TRIPOS>ATOM
      1 CBA          0.0000     0.0000     0.0000 c3         1 H02      -0.089100
      2 CAA          1.5300     0.0000     0.0000 c3         1 H02      -0.001100
      3 C3A          2.0320     0.0000     1.4210 cc         1 H02      -0.140300
      4 C2A          2.3040    -1.1360     2.1890 cc         1 H02      -0.184300
      5 CMA          2.1320    -2.5640     1.7390 c3         1 H02      -0.002800
      6 C1A          2.7610    -0.7100     3.4250 cd         1 H02      -0.012100
      7 CHA          3.1850    -1.5910     4.5120 cf         1 H02      -0.256200
      8 NA           2.7220     0.6650     3.4320 na         1 H02      -0.165100
      9 C4A          2.3190     1.1120     2.1930 cd         1 H02      -0.093100
     10 CHB          2.1750     2.4980     1.7690 cf         1 H02      -0.153200
     11 C1B          2.8350     3.5590     2.2880 cc         1 H02       0.142000
     12 NB           3.9310     3.6340     3.1330 na         1 H02      -0.592200
     13 CCB          5.0160     2.6530     3.2390 c3         1 H02       0.244100
     14 C2B          2.4570     4.9130     2.0310 cc         1 H02      -0.126200
     15 CMB          1.5200     5.3890     0.9560 c3         1 H02      -0.026900
     16 C3B          3.0680     5.6960     2.9440 cd         1 H02      -0.088200
     17 CAB          2.9200     7.1910     3.0530 c3         1 H02      -0.024200
     18 CBB          1.8360     7.5230     4.0800 c3         1 H02      -0.090100
     19 C4B          3.8750     4.8650     3.7740 cd         1 H02       0.094000
     20 CHC          4.3690     5.2590     4.9750 ce         1 H02      -0.086200
     21 C1C          4.9070     4.3800     6.0040 cc         1 H02      -0.120100
     22 NC           4.6020     3.0600     6.2330 na         1 H02      -0.164100
     23 C2C          5.8400     4.7620     6.9570 cd         1 H02      -0.129300
     24 CMC          6.4420     6.1340     7.1220 c3         1 H02      -0.014800
     25 C3C          6.1280     3.6420     7.7460 cd         1 H02      -0.090300
     26 CAC          7.0940     3.6050     8.9030 c3         1 H02      -0.004100
     27 CBC          6.3540     3.9540    10.1960 c3         1 H02      -0.177400
     28 CGC          7.3190     3.9170    11.3530 c          1 H02       0.891600
     29 O1C          6.8900     4.1930    12.5950 o          1 H02      -0.853800
     30 O2C          8.4800     3.6400    11.1630 o          1 H02      -0.853800
     31 C4C          5.3660     2.5850     7.2700 cc         1 H02      -0.090100
     32 CHD          5.4210     1.2200     7.7860 ce         1 H02      -0.068200
     33 C1D          4.8990     0.1510     7.1290 cd         1 H02       0.079000
     34 ND           4.2890     0.1450     5.8780 na         1 H02      -0.675800
     35 C4D          3.8630    -1.1500     5.6070 cc         1 H02       0.208000
     36 C3D          4.2800    -1.9690     6.6860 cc         1 H02      -0.182200
     37 CMD          4.0770    -3.4580     6.8120 c3         1 H02      -0.015900
     38 C2D          4.9030    -1.1890     7.6010 cd         1 H02      -0.010200
     39 CAD          5.4990    -1.6780     8.8960 c3         1 H02      -0.023200
     40 CBD          6.9910    -1.9550     8.6990 c3         1 H02      -0.178400
     41 CGD          7.5860    -2.4430     9.9940 c          1 H02       0.894600
     42 O1D          8.8920    -2.7500    10.0590 o          1 H02      -0.850300
     43 O2D          6.8900    -2.5570    10.9740 o          1 H02      -0.850300
     44 HBA1        -0.3610     0.1680     1.0070 hc         1 H02       0.028367
     45 HBA2        -0.3610     0.7890    -0.6490 hc         1 H02       0.028367
     46 HBA3        -0.3610    -0.9560    -0.3590 hc         1 H02       0.028367
     47 HAA1         1.8910    -0.8850    -0.5110 hc         1 H02       0.036700
     48 HAA2         1.8910     0.8840    -0.5110 hc         1 H02       0.036700
     49 HMA1         2.0270    -2.5930     0.6610 hc         1 H02       0.028367
     50 HMA2         2.9990    -3.1420     2.0330 hc         1 H02       0.028367
     51 HMA3         1.2450    -2.9830     2.1990 hc         1 H02       0.028367
     52 HHA          2.9450    -2.6450     4.4370 ha         1 H02       0.152000
     53 HNA          2.9450     1.2470     4.2150 hn         1 H02       0.287700
     54 HHB          1.4740     2.6870     0.9660 ha         1 H02       0.139000
     55 HCB1         5.1180     2.1250     2.2980 h1         1 H02       0.046033
     56 HCB2         5.9430     3.1630     3.4680 h1         1 H02       0.046033
     57 HCB3         4.7880     1.9460     4.0270 h1         1 H02       0.046033
     58 HMB1         0.5000     5.3330     1.3150 hc         1 H02       0.038033
     59 HMB2         1.7560     6.4150     0.7000 hc         1 H02       0.038033
     60 HMB3         1.6290     4.7640     0.0780 hc         1 H02       0.038033
     61 HAB1         3.8610     7.6250     3.3680 hc         1 H02       0.045200
     62 HAB2         2.6400     7.5970     2.0890 hc         1 H02       0.045200
     63 HBB1         1.0870     8.1570     3.6220 hc         1 H02       0.036367
     64 HBB2         1.3720     6.6070     4.4250 hc         1 H02       0.036367
     65 HBB3         2.2820     8.0400     4.9210 hc         1 H02       0.036367
     66 HHC          4.3680     6.3190     5.1960 ha         1 H02       0.144000
     67 HNC          3.9240     2.5280     5.7250 hn         1 H02       0.273700
     68 HMC1         6.5620     6.5950     6.1490 hc         1 H02       0.036033
     69 HMC2         7.4090     6.0490     7.6030 hc         1 H02       0.036033
     70 HMC3         5.7880     6.7440     7.7320 hc         1 H02       0.036033
     71 HAC1         7.8870     4.3240     8.7350 hc         1 H02       0.060700
     72 HAC2         7.5190     2.6120     8.9880 hc         1 H02       0.060700
     73 HBC1         5.9290     4.9480    10.1120 hc         1 H02       0.029700
     74 HBC2         5.5610     3.2360    10.3650 hc         1 H02       0.029700
     75 HHD          5.9050     1.0570     8.7410 ha         1 H02       0.201000
     76 HND          4.0300     0.9600     5.3580 hn         1 H02       0.428800
     77 HMD1         4.0720    -3.7340     7.8590 hc         1 H02       0.039367
     78 HMD2         4.8820    -3.9760     6.3050 hc         1 H02       0.039367
     79 HMD3         3.1310    -3.7320     6.3620 hc         1 H02       0.039367
     80 HAD1         5.0000    -2.5900     9.2010 hc         1 H02       0.066200
     81 HAD2         5.3690    -0.9220     9.6610 hc         1 H02       0.066200
     82 HBD1         7.4900    -1.0430     8.3930 hc         1 H02       0.035700
     83 HBD2         7.1200    -2.7120     7.9350 hc         1 H02       0.035700
@<TRIPOS>BOND
     1     1     2 1
     2     1    44 1
     3     1    45 1
     4     1    46 1
     5     2     3 1
     6     2    47 1
     7     2    48 1
     8     3     4 1
     9     3     9 2
    10     4     5 1
    11     4     6 2
    12     5    49 1
    13     5    50 1
    14     5    51 1
    15     6     7 1
    16     6     8 1
    17     7    35 2
    18     7    52 1
    19     8     9 1
    20     8    53 1
    21     9    10 1
    22    10    11 2
    23    10    54 1
    24    11    12 1
    25    11    14 1
    26    12    19 1
    27    12    13 1
    28    13    55 1
    29    13    56 1
    30    13    57 1
    31    14    15 1
    32    14    16 2
    33    15    58 1
    34    15    59 1
    35    15    60 1
    36    16    19 1
    37    16    17 1
    38    17    18 1
    39    17    61 1
    40    17    62 1
    41    18    63 1
    42    18    64 1
    43    18    65 1
    44    19    20 2
    45    20    21 1
    46    20    66 1
    47    21    22 1
    48    21    23 2
    49    22    31 1
    50    22    67 1
    51    23    25 1
    52    23    24 1
    53    24    68 1
    54    24    69 1
    55    24    70 1
    56    25    31 2
    57    25    26 1
    58    26    27 1
    59    26    71 1
    60    26    72 1
    61    27    28 1
    62    27    73 1
    63    27    74 1
    64    28    30 1
    65    28    29 1
    66    31    32 1
    67    32    33 2
    68    32    75 1
    69    33    38 1
    70    33    34 1
    71    34    35 1
    72    34    76 1
    73    35    36 1
    74    36    37 1
    75    36    38 2
    76    37    77 1
    77    37    78 1
    78    37    79 1
    79    38    39 1
    80    39    40 1
    81    39    80 1
    82    39    81 1
    83    40    41 1
    84    40    82 1
    85    40    83 1
    86    41    43 1
    87    41    42 1
@<TRIPOS>SUBSTRUCTURE
     1 H02         1 TEMP              0 ****  ****    0 ROOT
