@<TRIPOS>MOLECULE
H05
   30    32     1     0     0
SMALL
bcc


@<TRIPOS>ATOM
      1 C1           0.0000     0.0000     0.0000 cc         1 H05      -0.134300
      2 N2           1.3690     0.0000     0.0000 na         1 H05       0.461200
      3 N3          -0.4040    -0.0050     1.2540 nd         1 H05      -0.391300
      4 N4           1.7560     0.0000     1.3460 nc         1 H05      -0.759100
      5 C5           2.0550    -0.0010    -1.1760 cc         1 H05       0.364800
      6 N6           1.4720    -0.0020    -2.3360 nd         1 H05      -0.583000
      7 C7           0.6540    -0.0010     2.0660 cd         1 H05       0.651200
      8 C8          -0.6800    -0.0010    -1.2990 ca         1 H05      -0.130300
      9 C9           0.1220    -0.0010    -2.4630 ca         1 H05       0.368600
     10 N10          0.6010    -0.0010     3.4580 nv         1 H05      -0.528800
     11 C11         -2.0690    -0.0000    -1.4110 ca         1 H05      -0.048000
     12 C12          3.5610     0.0000    -1.1280 c3         1 H05      -0.072700
     13 C13         -0.4960    -0.0020    -3.7160 ca         1 H05      -0.141300
     14 C14          4.1160    -0.0010    -2.5540 c3         1 H05      -0.023400
     15 C15         -2.6450    -0.0000    -2.6520 ca         1 H05      -0.105000
     16 C16         -1.8600    -0.0010    -3.7970 ca         1 H05      -0.080000
     17 C17          5.6450    -0.0010    -2.5060 c3         1 H05       0.004900
     18 HN10         0.9680     0.7750     3.9730 hn         1 H05       0.277300
     19 HN1A         0.1970    -0.7780     3.9430 hn         1 H05       0.277300
     20 H11         -2.6880     0.0010    -0.5220 ha         1 H05       0.126000
     21 H12          3.9070    -0.8840    -0.6050 hc         1 H05       0.038700
     22 H12A         3.9050     0.8850    -0.6070 hc         1 H05       0.038700
     23 H13          0.1030    -0.0030    -4.6190 ha         1 H05       0.120000
     24 H14          3.7720     0.8830    -3.0760 hc         1 H05       0.025700
     25 H14A         3.7720    -0.8860    -3.0750 hc         1 H05       0.025700
     26 H15         -3.7240     0.0010    -2.7420 ha         1 H05       0.108000
     27 H16         -2.3360    -0.0010    -4.7700 ha         1 H05       0.105000
     28 H17          5.9900    -0.8870    -1.9870 hc         1 H05       0.001367
     29 H17A         6.0380     0.0030    -3.5150 hc         1 H05       0.001367
     30 H17B         5.9900     0.8820    -1.9810 hc         1 H05       0.001367
@<TRIPOS>BOND
     1     1     2 1   
     2     1     3 2   
     3     1     8 1   
     4     2     4 1   
     5     2     5 1   
     6     3     7 1   
     7     4     7 2   
     8     5     6 2   
     9     5    12 1   
    10     6     9 1   
    11     7    10 1   
    12     8     9 ar  
    13     8    11 ar  
    14     9    13 ar  
    15    10    18 1   
    16    10    19 1   
    17    11    15 ar  
    18    11    20 1   
    19    12    14 1   
    20    12    21 1   
    21    12    22 1   
    22    13    16 ar  
    23    13    23 1   
    24    14    17 1   
    25    14    24 1   
    26    14    25 1   
    27    15    16 ar  
    28    15    26 1   
    29    16    27 1   
    30    17    28 1   
    31    17    29 1   
    32    17    30 1   
@<TRIPOS>SUBSTRUCTURE
     1 H05         1 TEMP              0 ****  ****    0 ROOT
