@<TRIPOS>MOLECULE
molecule
   34    35     1     0     0
SMALL
bcc


@<TRIPOS>ATOM
      1 O            0.0000     0.0000     0.0000 o          1 H06      -0.553100
      2 N1          -0.3760     0.0030    -9.5920 n2         1 H06      -0.686100
      3 C2          -0.2870     0.0030    -7.1820 ca         1 H06      -0.202900
      4 N2          -2.4060     0.0080    -8.4640 nz         1 H06      -0.802600
      5 C3           1.1090     0.0020    -7.1840 ca         1 H06      -0.084500
      6 N3           1.1890     0.0000    -2.3810 n2         1 H06      -0.377300
      7 C4           1.7990     0.0020    -5.9930 ca         1 H06      -0.098500
      8 N4           1.8890     0.0010    -1.1670 ns         1 H06      -0.345900
      9 C5           1.1000     0.0010    -4.7810 ca         1 H06      -0.044900
     10 N5           4.0090     0.0000     2.4330 nb         1 H06      -0.688000
     11 C6           1.8370     0.0010    -3.5060 ce         1 H06       0.341800
     12 C7           1.2150     0.0000     0.0000 c          1 H06       0.699700
     13 C8           1.9550     0.0000     1.2790 ca         1 H06      -0.286900
     14 C9           3.3510     0.0000     1.2930 ca         1 H06       0.445200
     15 C10          3.3880    -0.0000     3.5970 ca         1 H06       0.455200
     16 C11          2.0060    -0.0010     3.6690 ca         1 H06      -0.258300
     17 C12          1.2670    -0.0010     2.4990 ca         1 H06      -0.025000
     18 C13         -0.2980     0.0020    -4.7820 ca         1 H06      -0.098500
     19 C14         -0.9860     0.0080    -5.9730 ca         1 H06      -0.084500
     20 HN1         -0.8750     0.0050   -10.4590 hn         1 H06       0.431400
     21 HN2         -2.7430    -0.8070    -7.9900 hn         1 H06       0.468133
     22 HN2A        -2.6990     0.8270    -7.9690 hn         1 H06       0.468133
     23 H3           1.6500     0.0030    -8.1220 ha         1 H06       0.139500
     24 H4           2.8820     0.0020    -5.9940 ha         1 H06       0.174500
     25 HN4          2.8900     0.0010    -1.1670 hn         1 H06       0.313500
     26 H6           2.9210     0.0020    -3.5060 h4         1 H06       0.007800
     27 H9           3.8970     0.0010     0.3570 h4         1 H06       0.011100
     28 H10          3.9690    -0.0010     4.5110 h4         1 H06       0.037100
     29 H11          1.5080    -0.0020     4.6310 ha         1 H06       0.155000
     30 H12          0.1840    -0.0010     2.5260 ha         1 H06       0.167000
     31 H13         -0.8410     0.0040    -3.8440 ha         1 H06       0.174500
     32 H14         -2.0690     0.0090    -5.9730 ha         1 H06       0.139500
     33 H23         -2.6950    -0.0210    -9.4210 hn         1 H06       0.468133
     34 C1          -1.0280     0.0020    -8.4640 ce         1 H06       0.537800
@<TRIPOS>BOND
     1     1    12 2
     2    34     2 2
     3    34     3 1
     4    34     4 1
     5     3     5 ar
     6     3    19 ar
     7     5     7 ar
     8     6     8 1
     9     6    11 2
    10     7     9 ar
    11     8    12 1
    12     9    11 1
    13     9    18 ar
    14    10    14 ar
    15    10    15 ar
    16    12    13 1
    17    13    14 ar
    18    13    17 ar
    19    15    16 ar
    20    16    17 ar
    21    18    19 ar
    22     2    20 1
    23     4    21 1
    24     4    22 1
    25     5    23 1
    26     7    24 1
    27     8    25 1
    28    11    26 1
    29    14    27 1
    30    15    28 1
    31    16    29 1
    32    17    30 1
    33    18    31 1
    34    19    32 1
    35    33     4 1
@<TRIPOS>SUBSTRUCTURE
     1 H06         1 TEMP              0 ****  ****    0 ROOT
