@<TRIPOS>MOLECULE
H06
   34    36     1     0     0
SMALL
bcc


@<TRIPOS>ATOM
      1 O            0.0000     0.0000     0.0000 o          1 H06      -0.336000
      2 N1          -0.3760     0.0030    -9.5920 n2         1 H06       0.037000
      3 C2          -0.2870     0.0030    -7.1820 c2         1 H06      -0.153000
      4 N2          -2.4060     0.0080    -8.4640 nz         1 H06       0.954000
      5 C3           1.1090     0.0020    -7.1840 c2         1 H06      -0.073000
      6 N3           1.1890     0.0000    -2.3810 n2         1 H06       0.068000
      7 C4           1.7990     0.0020    -5.9930 c2         1 H06      -0.062500
      8 N4           1.8890     0.0010    -1.1670 ns         1 H06       0.133000
      9 C5           1.1000     0.0010    -4.7810 c3         1 H06      -0.039000
     10 N5           4.0090     0.0000     2.4330 n2         1 H06      -0.050000
     11 C6           1.8370     0.0010    -3.5060 c2         1 H06      -0.449000
     12 C7           1.2150     0.0000     0.0000 c2         1 H06       0.279000
     13 C8           1.9550     0.0000     1.2790 c2         1 H06      -0.225000
     14 C9           3.3510     0.0000     1.2930 c2         1 H06      -0.033000
     15 C10          3.3880    -0.0000     3.5970 c2         1 H06      -0.017000
     16 C11          2.0060    -0.0010     3.6690 c2         1 H06      -0.161000
     17 C12          1.2670    -0.0010     2.4990 c2         1 H06       0.012000
     18 C13         -0.2980     0.0020    -4.7820 c2         1 H06      -0.062500
     19 C14         -0.9860     0.0080    -5.9730 c2         1 H06      -0.073000
     20 HN1          0.6250     0.0020    -9.5930 hn         1 H06       0.138000
     21 HN2         -2.7430    -0.8070    -7.9910 hn         1 H06       0.018667
     22 HN2A        -2.7470     0.8270    -8.0010 hn         1 H06       0.018667
     23 H3           1.6500     0.0030    -8.1220 ha         1 H06       0.099000
     24 H4           2.8820     0.0020    -5.9930 ha         1 H06       0.146000
     25 HN4          2.8900     0.0060    -1.1670 hn         1 H06       0.106000
     26 H6           1.3730    -0.8740    -3.9430 DU         1 H06       0.277000
     27 H9           3.8970     0.0010     0.3570 h4         1 H06       0.111000
     28 H10          3.9690    -0.0010     4.5110 h4         1 H06       0.126000
     29 H11          1.5080    -0.0020     4.6310 ha         1 H06       0.126000
     30 H12          0.1840    -0.0010     2.5260 ha         1 H06       0.132000
     31 H13         -0.8410     0.0040    -3.8440 ha         1 H06       0.146000
     32 H14         -2.0690     0.0090    -5.9730 ha         1 H06       0.099000
     33 H23         -2.6950    -0.0200    -9.4210 hn         1 H06       0.018667
     34 C1          -1.0280     0.0020    -8.4640 c2         1 H06      -0.311000
@<TRIPOS>BOND
     1     1    12 1   
     2     2    20 1   
     3     2    34 1   
     4     3     5 1   
     5     3    19 1   
     6     3    34 1   
     7     4    21 1   
     8     4    22 1   
     9     4    33 1   
    10     4    34 1   
    11     5     7 1   
    12     5    23 1   
    13     6     8 1   
    14     6    11 1   
    15     7     9 1   
    16     7    24 1   
    17     8    12 1   
    18     8    25 1   
    19     9    11 1   
    20     9    18 1   
    21     9    26 1   
    22    10    14 1   
    23    10    15 1   
    24    11    26 1   
    25    12    13 1   
    26    13    14 1   
    27    13    17 1   
    28    14    27 1   
    29    15    16 1   
    30    15    28 1   
    31    16    17 1   
    32    16    29 1   
    33    17    30 1   
    34    18    19 1   
    35    18    31 1   
    36    19    32 1   
@<TRIPOS>SUBSTRUCTURE
     1 H06         1 TEMP              0 ****  ****    0 ROOT
