@<TRIPOS>MOLECULE
molecule
   48    52     1     0     0
SMALL
bcc


@<TRIPOS>ATOM
      1 Cl1          0.0000     0.0000     0.0000 cl         1 H07      -0.098400
      2 C12          1.7360     0.0000     0.0000 ca         1 H07       0.063400
      3 C11          2.4260     0.0000     1.1990 ca         1 H07      -0.136500
      4 C10          3.8080     0.0010     1.2030 ca         1 H07      -0.052000
      5 C13          2.4270    -0.0070    -1.1990 ca         1 H07      -0.136500
      6 C14          3.8080    -0.0070    -1.2020 ca         1 H07      -0.052000
      7 C9           4.5040     0.0000     0.0010 ca         1 H07      -0.017100
      8 S2           6.2660    -0.0000     0.0010 ss         1 H07      -0.124100
      9 C8           6.5710     1.7290    -0.1550 cc         1 H07       0.438700
     10 N7           5.6510     2.6610    -0.1440 nd         1 H07      -0.571100
     11 C5           6.2380     3.8760    -0.2870 ca         1 H07      -0.149200
     12 C6           5.7660     5.1970    -0.3430 ca         1 H07       0.777200
     13 N6           4.4110     5.4700    -0.2440 nv         1 H07      -1.072500
     14 N1           6.6490     6.1790    -0.4940 nb         1 H07      -0.767000
     15 C2           7.9410     5.9280    -0.5900 ca         1 H07       0.706900
     16 N3           8.4290     4.7050    -0.5420 nb         1 H07      -0.759000
     17 C4           7.6220     3.6600    -0.3920 ca         1 H07       0.451800
     18 N9           7.8060     2.3000    -0.3010 na         1 H07      -0.248000
     19 C1'          9.0880     1.5930    -0.3530 c3         1 H07       0.224800
     20 C2'          9.4880     1.1190     1.0660 c3         1 H07       0.113100
     21 O2'         10.7700     1.6340     1.4280 os         1 H07      -0.383600
     22 C6'         10.7200     2.8850     2.1170 c3         1 H07       0.118700
     23 O4'          8.9660     0.4090    -1.1800 os         1 H07      -0.382600
     24 C4'          9.8300    -0.5580    -0.5890 c3         1 H07       0.033100
     25 C3'          9.5340    -0.4080     0.9280 c3         1 H07       0.133100
     26 O3'         10.6240    -1.0360     1.6100 os         1 H07      -0.501200
     27 C5'          9.6120    -2.0020    -0.9950 c3         1 H07       0.186400
     28 O5'         10.6390    -2.7800    -0.3360 os         1 H07      -0.535200
     29 P           10.9030    -2.6040     1.2550 p5         1 H07       1.534500
     30 O1P          9.8950    -3.5440     2.0880 oh         1 H07      -0.735400
     31 O2P         12.3040    -2.9550     1.5770 o          1 H07      -0.751300
     32 H1           1.8830     0.0000     2.1360 ha         1 H07       0.150500
     33 H2           4.3470     0.0040     2.1430 ha         1 H07       0.149000
     34 H3           1.8840    -0.0130    -2.1370 ha         1 H07       0.150500
     35 H4           4.3480    -0.0100    -2.1410 ha         1 H07       0.149000
     36 H5           4.0000     5.6410     0.6530 hn         1 H07       0.446300
     37 H6           3.8490     5.5240    -1.0700 hn         1 H07       0.446300
     38 H7           8.6260     6.7590    -0.7120 h5         1 H07       0.066100
     39 H8           9.8570     2.2420    -0.7540 h2         1 H07       0.120700
     40 H9           8.7350     1.4110     1.7880 h1         1 H07       0.076700
     41 H10         10.8250     3.6940     1.4050 h1         1 H07       0.041700
     42 H11          9.7700     2.9770     2.6300 h1         1 H07       0.041700
     43 H12         11.5260     2.9320     2.8390 h1         1 H07       0.041700
     44 H13         10.8600    -0.2840    -0.7830 h1         1 H07       0.094700
     45 H14          8.5850    -0.8600     1.1900 h1         1 H07       0.079700
     46 H15          9.7050    -2.1010    -2.0700 h1         1 H07       0.075700
     47 H16          8.6320    -2.3320    -0.6700 h1         1 H07       0.075700
     48 H17         10.3920    -4.1350     2.6290 ho         1 H07       0.483000
@<TRIPOS>BOND
     1    31    29 2
     2    28    27 1
     3    28    29 1
     4    27    24 1
     5    29    30 1
     6    29    26 1
     7    24    23 1
     8    24    25 1
     9    26    25 1
    10    23    19 1
    11    25    20 1
    12    21    20 1
    13    21    22 1
    14    19    20 1
    15    19    18 1
    16     6     5 ar
    17     6     7 ar
    18     5     2 ar
    19    18    17 1
    20    18     9 1
    21     8     7 1
    22     8     9 1
    23    16    17 ar
    24    16    15 ar
    25     7     4 ar
    26    17    11 ar
    27     9    10 2
    28     2     1 1
    29     2     3 ar
    30    15    14 ar
    31     4     3 ar
    32    10    11 1
    33    11    12 ar
    34    14    12 ar
    35    12    13 1
    36     3    32 1
    37     4    33 1
    38     5    34 1
    39     6    35 1
    40    13    36 1
    41    13    37 1
    42    15    38 1
    43    19    39 1
    44    20    40 1
    45    22    41 1
    46    22    42 1
    47    22    43 1
    48    24    44 1
    49    25    45 1
    50    27    46 1
    51    27    47 1
    52    30    48 1
@<TRIPOS>SUBSTRUCTURE
     1 H07         1 TEMP              0 ****  ****    0 ROOT
