@<TRIPOS>MOLECULE
H07
   48    52     1     0     0
SMALL
bcc


@<TRIPOS>ATOM
      1 Cl1          0.0000     0.0000     0.0000 cl         1 H07      -0.017400
      2 C12          1.7360     0.0000     0.0000 ca         1 H07       0.001400
      3 C11          2.4260     0.0000     1.1990 ca         1 H07      -0.117000
      4 C10          3.8080     0.0010     1.2030 ca         1 H07      -0.016500
      5 C13          2.4270    -0.0070    -1.1990 ca         1 H07      -0.117000
      6 C14          3.8080    -0.0070    -1.2020 ca         1 H07      -0.016500
      7 C9           4.5040     0.0000     0.0010 ca         1 H07       0.020900
      8 S2           6.2660    -0.0000     0.0010 ss         1 H07      -0.244100
      9 C8           6.5710     1.7290    -0.1550 cc         1 H07       0.281700
     10 N7           5.6510     2.6610    -0.1440 nd         1 H07      -0.490100
     11 C5           6.2380     3.8760    -0.2870 ca         1 H07      -0.174200
     12 C6           5.7660     5.1970    -0.3430 ca         1 H07       0.600200
     13 N6           4.4110     5.4700    -0.2440 nv         1 H07      -0.645500
     14 N1           6.6490     6.1790    -0.4940 nb         1 H07      -0.653000
     15 C2           7.9410     5.9280    -0.5900 ca         1 H07       0.642900
     16 N3           8.4290     4.7050    -0.5420 nb         1 H07      -0.620000
     17 C4           7.6220     3.6600    -0.3920 ca         1 H07       0.233800
     18 N9           7.8060     2.3000    -0.3010 na         1 H07       0.228000
     19 C1'          9.0880     1.5930    -0.3530 c3         1 H07       0.115800
     20 C2'          9.4880     1.1190     1.0660 c3         1 H07       0.128100
     21 O2'         10.7700     1.6340     1.4280 os         1 H07      -0.369600
     22 C6'         10.7200     2.8850     2.1170 c3         1 H07       0.239700
     23 O4'          8.9660     0.4090    -1.1800 os         1 H07      -0.370600
     24 C4'          9.8300    -0.5580    -0.5890 c3         1 H07       0.064100
     25 C3'          9.5340    -0.4080     0.9280 c3         1 H07       0.183100
     26 O3'         10.6240    -1.0360     1.6100 os         1 H07      -0.411200
     27 C5'          9.6120    -2.0020    -0.9950 c3         1 H07       0.280400
     28 O5'         10.6390    -2.7800    -0.3360 os         1 H07      -0.443200
     29 P           10.9030    -2.6040     1.2550 p5         1 H07       1.209500
     30 O1P          9.8950    -3.5440     2.0880 oh         1 H07      -0.653400
     31 O2P         12.3040    -2.9550     1.5770 o          1 H07      -0.602300
     32 H1           1.8830     0.0000     2.1360 ha         1 H07       0.119500
     33 H2           4.3470     0.0040     2.1430 ha         1 H07       0.118500
     34 H3           1.8840    -0.0130    -2.1370 ha         1 H07       0.119500
     35 H4           4.3480    -0.0100    -2.1410 ha         1 H07       0.118500
     36 H5           4.0000     5.6410     0.6530 hn         1 H07       0.283300
     37 H6           3.8490     5.5240    -1.0700 hn         1 H07       0.283300
     38 H7           8.6260     6.7590    -0.7120 h5         1 H07       0.001100
     39 H8           9.8570     2.2420    -0.7540 h2         1 H07       0.076700
     40 H9           8.7350     1.4110     1.7880 h1         1 H07       0.036700
     41 H10         10.8250     3.6940     1.4050 h1         1 H07      -0.005300
     42 H11          9.7700     2.9770     2.6300 h1         1 H07      -0.005300
     43 H12         11.5260     2.9320     2.8390 h1         1 H07      -0.005300
     44 H13         10.8600    -0.2840    -0.7830 h1         1 H07       0.054700
     45 H14          8.5850    -0.8600     1.1900 h1         1 H07       0.045700
     46 H15          9.7050    -2.1010    -2.0700 h1         1 H07       0.015700
     47 H16          8.6320    -2.3320    -0.6700 h1         1 H07       0.015700
     48 H17         10.3920    -4.1350     2.6290 ho         1 H07       0.459000
@<TRIPOS>BOND
     1     1     2 1   
     2     2     3 ar  
     3     2     5 ar  
     4     3     4 ar  
     5     3    32 1   
     6     4     7 ar  
     7     4    33 1   
     8     5     6 ar  
     9     5    34 1   
    10     6     7 ar  
    11     6    35 1   
    12     7     8 1   
    13     8     9 1   
    14     9    10 2   
    15     9    18 1   
    16    10    11 1   
    17    11    12 ar  
    18    11    17 ar  
    19    12    13 1   
    20    12    14 ar  
    21    13    36 1   
    22    13    37 1   
    23    14    15 ar  
    24    15    16 ar  
    25    15    38 1   
    26    16    17 ar  
    27    17    18 1   
    28    18    19 1   
    29    19    20 1   
    30    19    23 1   
    31    19    39 1   
    32    20    21 1   
    33    20    25 1   
    34    20    40 1   
    35    21    22 1   
    36    22    41 1   
    37    22    42 1   
    38    22    43 1   
    39    23    24 1   
    40    24    25 1   
    41    24    27 1   
    42    24    44 1   
    43    25    26 1   
    44    25    45 1   
    45    26    29 1   
    46    27    28 1   
    47    27    46 1   
    48    27    47 1   
    49    28    29 1   
    50    29    30 1   
    51    29    31 2   
    52    30    48 1   
@<TRIPOS>SUBSTRUCTURE
     1 H07         1 TEMP              0 ****  ****    0 ROOT
