@<TRIPOS>MOLECULE
molecule
   61    65     1     0     0
SMALL
bcc


@<TRIPOS>ATOM
      1 C22          0.0000     0.0000     0.0000 ca         1 H0E      -0.095500
      2 O1          -1.4920    -4.1650    -0.3200 oh         1 H0E      -0.573800
      3 C15         -2.0900     1.1690     5.7300 c3         1 H0E      -0.088400
      4 C14         -1.9040     0.5490     7.1400 c3         1 H0E      -0.089400
      5 C20          2.0770     0.0000     1.1970 ca         1 H0E      -0.095500
      6 N1           1.4730    -4.4610    -1.0260 n2         1 H0E      -0.646900
      7 S1          -2.7550    -2.7710     5.1350 sy         1 H0E       1.447200
      8 C16         -2.6870     0.0020     4.9160 c3         1 H0E       0.252500
      9 C17         -2.1040     0.0020     3.5020 c3         1 H0E       0.109400
     10 C11          0.5000    -4.2880     2.3540 ca         1 H0E       0.230600
     11 C5          -0.4130    -3.5140     0.3520 c3         1 H0E       0.170100
     12 C4           0.8820    -4.2400     0.0990 c2         1 H0E       0.607200
     13 C3           2.7330    -5.2140    -1.0410 c3         1 H0E       0.133800
     14 C6          -0.5960    -3.5960     1.8520 ca         1 H0E      -0.177300
     15 C2           3.5140    -4.9670     0.2510 c3         1 H0E      -0.115000
     16 C9          -0.4090    -4.0470     4.5680 ca         1 H0E       0.019000
     17 C8          -1.4930    -3.3600     4.0560 ca         1 H0E      -0.354500
     18 C7          -1.5840    -3.1350     2.6930 ca         1 H0E       0.040000
     19 C10          0.5840    -4.5110     3.7280 ca         1 H0E      -0.199000
     20 N2           1.3640    -4.6460     1.3230 nh         1 H0E      -0.668000
     21 C12          2.6480    -5.3580     1.4570 c3         1 H0E       0.245800
     22 O2          -3.9270    -2.6300     4.3420 o          1 H0E      -0.637800
     23 O3          -2.6980    -3.5830     6.3000 o          1 H0E      -0.637800
     24 N3          -2.3240    -1.2440     5.6070 n3         1 H0E      -0.822500
     25 C13         -1.5110    -0.9080     6.7910 c3         1 H0E       0.235800
     26 O4          -0.6770     0.0010     3.5750 os         1 H0E      -0.324900
     27 C18          0.0020     0.0010     2.3970 ca         1 H0E       0.143100
     28 C19          1.3890     0.0010     2.3950 ca         1 H0E      -0.191500
     29 C21          1.3830     0.0000     0.0000 ca         1 H0E      -0.166000
     30 C23         -0.6920     0.0020     1.1960 ca         1 H0E      -0.191500
     31 H22         -0.5410     0.0000    -0.9380 ha         1 H0E       0.132500
     32 HO1         -1.6560    -3.7350    -1.1430 ho         1 H0E       0.411000
     33 H15         -1.1350     1.4730     5.3180 hc         1 H0E       0.061700
     34 H15A        -2.7820     2.0020     5.7680 hc         1 H0E       0.061700
     35 H14         -1.1060     1.0450     7.6780 hc         1 H0E       0.055700
     36 H14A        -2.8330     0.5740     7.6980 hc         1 H0E       0.055700
     37 H20          3.1600    -0.0000     1.1940 ha         1 H0E       0.132500
     38 H16         -3.7650     0.0980     4.8750 h1         1 H0E       0.077700
     39 H17         -2.4390    -0.8820     2.9730 h1         1 H0E       0.046200
     40 H17A        -2.4380     0.8870     2.9730 h1         1 H0E       0.046200
     41 H5          -0.3320    -2.4800     0.0380 h1         1 H0E       0.076700
     42 H3           3.3300    -4.8940    -1.8860 h1         1 H0E       0.064200
     43 H3A          2.5150    -6.2720    -1.1300 h1         1 H0E       0.064200
     44 H1           3.9640    -3.2010     1.3890 hc         1 H0E       0.041867
     45 H1A          3.1180    -2.8900    -0.1330 hc         1 H0E       0.041867
     46 H1B          4.8350    -3.3190    -0.1460 hc         1 H0E       0.041867
     47 H9          -0.3410    -4.2300     5.6330 ha         1 H0E       0.151000
     48 H7          -2.4670    -2.6610     2.2810 ha         1 H0E       0.152000
     49 H10          1.4300    -5.0490     4.1380 ha         1 H0E       0.136000
     50 H12          3.1400    -5.0580     2.3750 h1         1 H0E       0.056200
     51 H12A         2.4770    -6.4280     1.4560 h1         1 H0E       0.056200
     52 H13         -0.4560    -0.9650     6.5500 h1         1 H0E       0.054200
     53 H13A        -1.7530    -1.5700     7.6130 h1         1 H0E       0.054200
     54 H19          1.9320     0.0010     3.3320 ha         1 H0E       0.139500
     55 H21          1.9230    -0.0010    -0.9390 ha         1 H0E       0.134000
     56 H23         -1.7750     0.0020     1.1950 ha         1 H0E       0.139500
     57 H24          4.5260    -6.8630     0.2160 hc         1 H0E       0.041867
     58 H24A         5.3820    -5.5650    -0.6280 hc         1 H0E       0.041867
     59 H24B         5.3620    -5.6080     1.1410 hc         1 H0E       0.041867
     60 C24          4.7890    -5.8120     0.2440 c3         1 H0E      -0.084600
     61 C1           3.8850    -3.4860     0.3470 c3         1 H0E      -0.084600
@<TRIPOS>BOND
     1     1    29 ar
     2     1    30 ar
     3     2    11 1
     4     3     4 1
     5     3     8 1
     6     4    25 1
     7     5    28 ar
     8     5    29 ar
     9     6    12 2
    10     6    13 1
    11     7    17 1
    12     7    22 2
    13     7    23 2
    14     7    24 1
    15     8     9 1
    16     8    24 1
    17     9    26 1
    18    10    14 ar
    19    10    19 ar
    20    10    20 1
    21    11    12 1
    22    11    14 1
    23    12    20 1
    24    13    15 1
    25    14    18 ar
    26    61    15 1
    27    15    21 1
    28    15    60 1
    29    16    17 ar
    30    16    19 ar
    31    17    18 ar
    32    20    21 1
    33    24    25 1
    34    26    27 1
    35    27    28 ar
    36    27    30 ar
    37     1    31 1
    38     2    32 1
    39     3    33 1
    40     3    34 1
    41     4    35 1
    42     4    36 1
    43     5    37 1
    44     8    38 1
    45     9    39 1
    46     9    40 1
    47    11    41 1
    48    13    42 1
    49    13    43 1
    50    61    44 1
    51    61    45 1
    52    61    46 1
    53    16    47 1
    54    18    48 1
    55    19    49 1
    56    21    50 1
    57    21    51 1
    58    25    52 1
    59    25    53 1
    60    28    54 1
    61    29    55 1
    62    30    56 1
    63    60    57 1
    64    60    58 1
    65    60    59 1
@<TRIPOS>SUBSTRUCTURE
     1 H0E         1 TEMP              0 ****  ****    0 ROOT
