@<TRIPOS>MOLECULE
H0K
   45    49     1     0     0
SMALL
bcc


@<TRIPOS>ATOM
      1 O2         -0.0920   -0.0340   -0.2160 oh        1 H0K     -0.495100
      2 C19         1.2790   -0.0270   -0.1100 ca        1 H0K      0.130100
      3 C18         1.9470   -0.2820    1.0960 ca        1 H0K     -0.186000
      4 C17         3.3380   -0.2560    1.1230 ca        1 H0K     -0.080000
      5 C20         1.9980    0.2520   -1.2850 ca        1 H0K     -0.186000
      6 C21         3.3860    0.2690   -1.2390 ca        1 H0K     -0.080000
      7 C16         4.0720    0.0170   -0.0400 cp        1 H0K     -0.079000
      8 C13         5.5310    0.0400   -0.0050 cp        1 H0K     -0.021000
      9 C12         6.2100    0.6130    1.0800 ca        1 H0K     -0.119500
     10 C11         7.6000    0.6320    1.1140 ca        1 H0K     -0.115500
     11 C14         6.2780   -0.5090   -1.0570 ca        1 H0K     -0.119500
     12 C15         7.6690   -0.4920   -1.0250 ca        1 H0K     -0.115500
     13 C10         8.3470    0.0760    0.0630 ca        1 H0K     -0.017000
     14 C9          9.7920    0.1150    0.1300 cc        1 H0K     -0.019300
     15 C7         10.6480    0.9370    0.8580 cd        1 H0K     -0.249600
     16 C6         10.7370    2.0700    1.8110 c3        1 H0K      0.051200
     17 N2         10.6460   -0.7520   -0.6000 na        1 H0K     -0.035600
     18 N1         11.9480   -0.5510   -0.3770 nc        1 H0K     -0.461800
     19 C8         12.0080    0.4760    0.4970 cd        1 H0K      0.337800
     20 C22        12.9700    1.2960    1.2080 ca        1 H0K     -0.110500
     21 C5         12.2290    2.2440    1.9900 ca        1 H0K     -0.081300
     22 C4         12.8990    3.1600    2.7760 ca        1 H0K     -0.124000
     23 C3         14.3020    3.1460    2.7940 ca        1 H0K     -0.096000
     24 C23        14.3500    1.2840    1.2280 ca        1 H0K     -0.098000
     25 C2         15.0210    2.2250    2.0340 ca        1 H0K     -0.094300
     26 C1         16.5140    2.1940    2.0380 c3        1 H0K      0.176700
     27 O1         17.0100    3.1900    2.9210 oh        1 H0K     -0.599800
     28 H15        -0.4590   -0.2350    0.6570 ho        1 H0K      0.420000
     29 H14         1.3780   -0.5020    2.0100 ha        1 H0K      0.144500
     30 H13         3.8670   -0.4620    2.0660 ha        1 H0K      0.138000
     31 H16         1.4540    0.4520   -2.2190 ha        1 H0K      0.144500
     32 H17         3.9550    0.4930   -2.1550 ha        1 H0K      0.138000
     33 H10         5.6380    1.0570    1.9090 ha        1 H0K      0.138000
     34 H9          8.1260    1.0880    1.9680 ha        1 H0K      0.135500
     35 H11         5.7590   -0.9630   -1.9150 ha        1 H0K      0.138000
     36 H12         8.2270   -0.9190   -1.8720 ha        1 H0K      0.135500
     37 H7         10.2720    3.0010    1.3960 hc        1 H0K      0.069200
     38 H8         10.2440    1.8320    2.7890 hc        1 H0K      0.069200
     39 H1         10.3500   -1.5090   -1.1690 hn        1 H0K      0.319700
     40 H6         12.3500    3.8940    3.3820 ha        1 H0K      0.135000
     41 H5         14.8460    3.8730    3.4190 ha        1 H0K      0.154000
     42 H18        14.9190    0.5580    0.6290 ha        1 H0K      0.143000
     43 H3         16.8720    1.1810    2.3740 h1        1 H0K      0.032700
     44 H4         16.8990    2.3870    0.9980 h1        1 H0K      0.032700
     45 H2         17.9720    3.1270    2.8820 ho        1 H0K      0.403000
@<TRIPOS>BOND
     1    1    2 1   
     2    1   28 1   
     3    2    3 ar  
     4    2    5 ar  
     5    3    4 ar  
     6    3   29 1   
     7    4    7 ar  
     8    4   30 1   
     9    5    6 ar  
    10    5   31 1   
    11    6    7 ar  
    12    6   32 1   
    13    7    8 1   
    14    8    9 ar  
    15    8   11 ar  
    16    9   10 ar  
    17    9   33 1   
    18   10   13 ar  
    19   10   34 1   
    20   11   12 ar  
    21   11   35 1   
    22   12   13 ar  
    23   12   36 1   
    24   13   14 1   
    25   14   15 2   
    26   14   17 1   
    27   15   16 1   
    28   15   19 1   
    29   16   21 1   
    30   16   37 1   
    31   16   38 1   
    32   17   18 1   
    33   17   39 1   
    34   18   19 2   
    35   19   20 1   
    36   20   21 ar  
    37   20   24 ar  
    38   21   22 ar  
    39   22   23 ar  
    40   22   40 1   
    41   23   25 ar  
    42   23   41 1   
    43   24   25 ar  
    44   24   42 1   
    45   25   26 1   
    46   26   27 1   
    47   26   43 1   
    48   26   44 1   
    49   27   45 1   
@<TRIPOS>SUBSTRUCTURE
     1 H0K         1 TEMP              0 ****  ****    0 ROOT
