@<TRIPOS>MOLECULE
molecule
   45    49     1     0     0
SMALL
bcc


@<TRIPOS>ATOM
      1 O2           0.0000     0.0000     0.0000 oh         1 H0K      -0.522100
      2 C19          1.3590     0.0000     0.0000 ca         1 H0K       0.109100
      3 C18          2.0510     0.0000     1.2040 ca         1 H0K      -0.151000
      4 C17          3.4300    -0.0010     1.2070 ca         1 H0K      -0.105000
      5 C20          2.0520    -0.0060    -1.2030 ca         1 H0K      -0.151000
      6 C21          3.4320    -0.0080    -1.2050 ca         1 H0K      -0.105000
      7 C16          4.1290    -0.0020     0.0010 cp         1 H0K      -0.048000
      8 C13          5.6120    -0.0020     0.0020 cp         1 H0K      -0.024000
      9 C12          6.3090     0.0050     1.2100 ca         1 H0K      -0.121500
     10 C11          7.6850     0.0040     1.2120 ca         1 H0K      -0.107500
     11 C14          6.3100    -0.0150    -1.2070 ca         1 H0K      -0.121500
     12 C15          7.6860    -0.0160    -1.2060 ca         1 H0K      -0.107500
     13 C10          8.3850    -0.0030     0.0030 ca         1 H0K      -0.031000
     14 C9           9.8630    -0.0040     0.0030 cc         1 H0K      -0.003300
     15 C7          10.6700     0.7800     0.7720 cd         1 H0K      -0.302600
     16 C6          10.6910     1.8590     1.8270 c3         1 H0K       0.054200
     17 N2          10.6700    -0.7940    -0.7620 na         1 H0K      -0.036600
     18 N1          12.0000    -0.4840    -0.4500 nc         1 H0K      -0.480800
     19 C8          12.0040     0.4670     0.4660 cd         1 H0K       0.382800
     20 C22         12.9060     1.3120     1.2890 ca         1 H0K      -0.115500
     21 C5          12.1460     2.1440     2.1070 ca         1 H0K      -0.072300
     22 C4          12.7660     3.0260     2.9660 ca         1 H0K      -0.120000
     23 C3          14.1460     3.0890     3.0200 ca         1 H0K      -0.098000
     24 C23         14.2990     1.3720     1.3570 ca         1 H0K      -0.074000
     25 C2          14.9090     2.2670     2.2110 ca         1 H0K      -0.092300
     26 C1          16.4140     2.3290     2.2830 c3         1 H0K       0.189700
     27 O1          16.8970     3.2760     1.3280 oh         1 H0K      -0.602800
     28 H15         -0.3140     0.8890    -0.0040 ho         1 H0K       0.420000
     29 H14          1.5070     0.0010     2.1410 ha         1 H0K       0.142000
     30 H13          3.9700     0.0020     2.1470 ha         1 H0K       0.136500
     31 H16          1.5090    -0.0110    -2.1410 ha         1 H0K       0.142000
     32 H17          3.9720    -0.0110    -2.1440 ha         1 H0K       0.136500
     33 H10          5.7670     0.0100     2.1470 ha         1 H0K       0.137000
     34 H9           8.2260     0.0110     2.1500 ha         1 H0K       0.138000
     35 H11          5.7680    -0.0250    -2.1450 ha         1 H0K       0.137000
     36 H12          8.2280    -0.0230    -2.1440 ha         1 H0K       0.138000
     37 H7          10.2030     2.7520     1.4550 hc         1 H0K       0.063200
     38 H8          10.2010     1.5080     2.7270 hc         1 H0K       0.063200
     39 H1          10.3660    -1.5010    -1.4020 hn         1 H0K       0.335700
     40 H6          12.1700     3.6710     3.6010 ha         1 H0K       0.132000
     41 H5          14.6300     3.7900     3.6890 ha         1 H0K       0.135000
     42 H18         14.9010     0.7300     0.7250 ha         1 H0K       0.143000
     43 H3          16.7150     2.6330     3.2780 h1         1 H0K       0.026200
     44 H4          16.8260     1.3510     2.0640 h1         1 H0K       0.026200
     45 H2          17.8380     3.3170     1.3750 ho         1 H0K       0.401000
@<TRIPOS>BOND
     1    27    26 1
     2    26    25 1
     3    18    17 1
     4    18    19 2
     5    24    25 ar
     6    24    20 ar
     7    25    23 ar
     8    17    14 1
     9    19    20 1
    10    19    15 1
    11    20    21 ar
    12    23    22 ar
    13    14    15 2
    14    14    13 1
    15    15    16 1
    16    21    22 ar
    17    21    16 1
    18    13    12 ar
    19    13    10 ar
    20    12    11 ar
    21    10     9 ar
    22    11     8 ar
    23     9     8 ar
    24     8     7 1
    25     7     6 ar
    26     7     4 ar
    27     6     5 ar
    28     4     3 ar
    29     5     2 ar
    30     3     2 ar
    31     2     1 1
    32     1    28 1
    33     3    29 1
    34     4    30 1
    35     5    31 1
    36     6    32 1
    37     9    33 1
    38    10    34 1
    39    11    35 1
    40    12    36 1
    41    16    37 1
    42    16    38 1
    43    17    39 1
    44    22    40 1
    45    23    41 1
    46    24    42 1
    47    26    43 1
    48    26    44 1
    49    27    45 1
@<TRIPOS>SUBSTRUCTURE
     1 H0K         1 TEMP              0 ****  ****    0 ROOT
