@<TRIPOS>MOLECULE
H0T
   66    71     1     0     0
SMALL
bcc


@<TRIPOS>ATOM
      1 C1           0.0000     0.0000     0.0000 ca         1 H0T      -0.297600
      2 C2          -0.0720     0.0100    -2.5200 c          1 H0T       0.607600
      3 O4           1.1370     0.1110    -2.5820 o          1 H0T      -0.565100
      4 C7           1.3980     0.0000     0.0000 ca         1 H0T      -0.054000
      5 C9           0.0130     0.0000     2.4410 ca         1 H0T      -0.188300
      6 C11          2.0770     0.0000     1.2070 cp         1 H0T      -0.122000
      7 C12          1.3720     0.0000     2.4220 ca         1 H0T      -0.002000
      8 C13         -2.6900     0.0010     0.0610 ca         1 H0T       0.695900
      9 C15          3.5600    -0.0000     1.2160 cp         1 H0T       0.080000
     10 C16         -0.7790    -0.5780    -4.9380 c3         1 H0T       0.140800
     11 C19         -2.0410    -0.8010    -5.7310 ca         1 H0T      -0.114800
     12 C20         -2.2450    -0.9910    -7.0860 ca         1 H0T      -0.074000
     13 C21         -3.5240    -1.1770    -7.5760 ca         1 H0T      -0.100000
     14 C22         -4.6020    -1.1750    -6.7100 ca         1 H0T      -0.100000
     15 C24          4.2630    -1.0700     0.6650 ca         1 H0T      -0.119000
     16 C27          5.6360     1.0640     1.7820 ca         1 H0T       0.005000
     17 C33          1.2260     2.7950     0.8340 c3         1 H0T       0.209800
     18 C34          0.3500     4.0520     0.7810 c3         1 H0T       0.141800
     19 N3          -1.1560    -0.4370    -3.5280 n          1 H0T      -0.264800
     20 C5          -0.7500     0.0050    -1.2010 ca         1 H0T       0.381800
     21 C6          -0.7050     0.0010     1.2340 ca         1 H0T       0.443600
     22 N8          -2.0710     0.0050    -1.1150 nb         1 H0T      -0.654000
     23 N10         -2.0410     0.0000     1.2110 nb         1 H0T      -0.664000
     24 N14         -4.0730     0.0020     0.0820 nv         1 H0T      -0.525500
     25 C17         -2.6150    -0.5730    -3.4630 c3         1 H0T       0.140800
     26 C18         -3.1180    -0.7980    -4.8660 ca         1 H0T      -0.114800
     27 C23         -4.3980    -0.9850    -5.3570 ca         1 H0T      -0.074000
     28 C25          5.6430    -1.0650     0.6760 ca         1 H0T      -0.046000
     29 C26          6.3280    -0.0000     1.2340 ca         1 H0T      -0.134000
     30 C28          4.2550     1.0720     1.7710 ca         1 H0T      -0.149500
     31 S29          3.3750     2.4330     2.4630 sy         1 H0T       1.051200
     32 O30          2.3670     1.8760     3.2950 o          1 H0T      -0.594300
     33 O31          4.3550     3.3460     2.9360 o          1 H0T      -0.594300
     34 N32          2.5890     3.1920     1.2190 n3         1 H0T      -0.518500
     35 N35          0.9790     5.0460    -0.0980 n3         1 H0T      -0.545600
     36 C36          2.2810     5.4790     0.4310 c3         1 H0T       0.141800
     37 C37          3.2350     4.2800     0.4700 c3         1 H0T       0.209800
     38 C38          0.0920     6.1960    -0.3130 c3         1 H0T       0.189100
     39 H1           1.9450    -0.0000    -0.9350 ha         1 H0T       0.166000
     40 H2          -0.5150     0.0000     3.3860 ha         1 H0T       0.128000
     41 H3           1.9190     0.0000     3.3570 ha         1 H0T       0.155000
     42 H5          -0.1340    -1.4410    -5.0490 h1         1 H0T       0.025450
     43 H6          -1.4000    -0.9930    -7.7650 ha         1 H0T       0.102000
     44 H7          -3.6820    -1.3260    -8.6370 ha         1 H0T       0.104000
     45 H8          -5.6050    -1.3210    -7.0920 ha         1 H0T       0.104000
     46 H9           3.7270    -1.9040     0.2280 ha         1 H0T       0.116000
     47 H10          6.1780     1.8960     2.2150 ha         1 H0T       0.129000
     48 H11          0.8280     2.1060     1.5680 h1         1 H0T       0.037700
     49 H12          1.2470     2.3260    -0.1420 h1         1 H0T       0.037700
     50 H13         -0.6270     3.7940     0.3910 h1         1 H0T       0.014450
     51 H14          0.2510     4.4640     1.7780 h1         1 H0T       0.014450
     52 H15         -4.5840     0.4510    -0.6520 hn         1 H0T       0.276300
     53 H16         -4.5630    -0.4580     0.8240 hn         1 H0T       0.276300
     54 H17         -3.0530     0.3980    -3.2650 h1         1 H0T       0.025450
     55 H18         -2.8700    -1.3050    -2.7060 h1         1 H0T       0.025450
     56 H19         -5.2430    -0.9830    -4.6780 ha         1 H0T       0.102000
     57 H20          6.1900    -1.8960     0.2480 ha         1 H0T       0.103000
     58 H21          7.4120    -0.0010     1.2430 ha         1 H0T       0.109000
     59 H23          2.6940     6.2470    -0.2110 h1         1 H0T       0.014450
     60 H24          2.1510     5.8690     1.4330 h1         1 H0T       0.014450
     61 H25          4.1560     4.5650     0.9650 h1         1 H0T       0.037700
     62 H26          3.4460     3.9510    -0.5400 h1         1 H0T       0.037700
     63 H27         -0.0980     6.6880     0.6330 h1         1 H0T      -0.000633
     64 H28         -0.8450     5.8550    -0.7380 h1         1 H0T      -0.000633
     65 H29          0.5640     6.8950    -0.9940 h1         1 H0T      -0.000633
     66 H4          -0.3070     0.3380    -5.2720 h1         1 H0T       0.025450
@<TRIPOS>BOND
     1     1     4 ar  
     2     1    20 ar  
     3     1    21 ar  
     4     2     3 2   
     5     2    19 1   
     6     2    20 1   
     7     4     6 ar  
     8     4    39 1   
     9     5     7 ar  
    10     5    21 ar  
    11     5    40 1   
    12     6     7 ar  
    13     6     9 1   
    14     7    41 1   
    15     8    22 ar  
    16     8    23 ar  
    17     8    24 1   
    18     9    15 ar  
    19     9    30 ar  
    20    10    11 1   
    21    10    19 1   
    22    10    42 1   
    23    10    66 1   
    24    11    12 ar  
    25    11    26 ar  
    26    12    13 ar  
    27    12    43 1   
    28    13    14 ar  
    29    13    44 1   
    30    14    27 ar  
    31    14    45 1   
    32    15    28 ar  
    33    15    46 1   
    34    16    29 ar  
    35    16    30 ar  
    36    16    47 1   
    37    17    18 1   
    38    17    34 1   
    39    17    48 1   
    40    17    49 1   
    41    18    35 1   
    42    18    50 1   
    43    18    51 1   
    44    19    25 1   
    45    20    22 ar  
    46    21    23 ar  
    47    24    52 1   
    48    24    53 1   
    49    25    26 1   
    50    25    54 1   
    51    25    55 1   
    52    26    27 ar  
    53    27    56 1   
    54    28    29 ar  
    55    28    57 1   
    56    29    58 1   
    57    30    31 1   
    58    31    32 2   
    59    31    33 2   
    60    31    34 1   
    61    34    37 1   
    62    35    36 1   
    63    35    38 1   
    64    36    37 1   
    65    36    59 1   
    66    36    60 1   
    67    37    61 1   
    68    37    62 1   
    69    38    63 1   
    70    38    64 1   
    71    38    65 1   
@<TRIPOS>SUBSTRUCTURE
     1 H0T         1 TEMP              0 ****  ****    0 ROOT
