@<TRIPOS>MOLECULE
molecule
   34    36     1     0     0
SMALL
bcc


@<TRIPOS>ATOM
      1 CAF          0.0000     0.0000     0.0000 ca         1 H0V      -0.126500
      2 CAD          1.3820     0.0000     0.0000 ca         1 H0V      -0.125500
      3 CAC          2.0740     0.0000     1.1970 ca         1 H0V      -0.132000
      4 CAE          1.3830    -0.0000     2.3940 ca         1 H0V      -0.125500
      5 CAG          0.0010     0.0010     2.3950 ca         1 H0V      -0.126500
      6 CAN         -0.6900    -0.0000     1.1980 ca         1 H0V      -0.083300
      7 CAI         -2.1980    -0.0000     1.1990 c3         1 H0V      -0.032100
      8 CAJ         -2.7070    -1.4430     1.1970 c3         1 H0V       0.002800
      9 CAQ         -4.2150    -1.4420     1.1980 cc         1 H0V      -0.120400
     10 C5          -5.0870    -1.3390     0.0290 ca         1 H0V      -0.373400
     11 C6          -4.8820    -1.2170    -1.3550 ca         1 H0V       0.769200
     12 NAB         -3.6030    -1.1720    -1.8790 nv         1 H0V      -1.058500
     13 N1          -5.9460    -1.1480    -2.1490 nb         1 H0V      -0.804000
     14 C2          -7.1750    -1.1910    -1.6490 ca         1 H0V       0.963900
     15 NAA         -8.2500    -1.1140    -2.5180 nv         1 H0V      -1.053500
     16 N3          -7.4120    -1.3060    -0.3530 nb         1 H0V      -0.791000
     17 C4          -6.4050    -1.3810     0.5170 ca         1 H0V       0.512800
     18 NAM         -6.3280    -1.5020     1.8770 na         1 H0V      -0.276100
     19 CAH         -5.0140    -1.5420     2.2710 cd         1 H0V      -0.109100
     20 HAF         -0.5420    -0.0000    -0.9380 ha         1 H0V       0.128500
     21 HAD          1.9240     0.0000    -0.9380 ha         1 H0V       0.128000
     22 HAC          3.1580    -0.0000     1.1960 ha         1 H0V       0.129000
     23 HAE          1.9250     0.0000     3.3320 ha         1 H0V       0.128000
     24 HAG         -0.5400     0.0010     3.3340 ha         1 H0V       0.128500
     25 HAI1        -2.5590     0.5120     0.3150 hc         1 H0V       0.053700
     26 HAI2        -2.5580     0.5100     2.0840 hc         1 H0V       0.053700
     27 HAJ1        -2.3470    -1.9530     0.3120 hc         1 H0V       0.048200
     28 HAJ2        -2.3460    -1.9540     2.0810 hc         1 H0V       0.048200
     29 HAH         -4.6740    -1.6360     3.2960 h4         1 H0V       0.171000
     30 HAB1        -3.0080    -1.9730    -1.8130 hn         1 H0V       0.439800
     31 HAB2        -3.2960    -0.3600    -2.3780 hn         1 H0V       0.439800
     32 HAA1        -8.5280    -0.2290    -2.8940 hn         1 H0V       0.442800
     33 HAA2        -8.7520    -1.9430    -2.7670 hn         1 H0V       0.442800
     34 HAM         -7.1150    -1.5590     2.4940 hn         1 H0V       0.305700
@<TRIPOS>BOND
     1     1     2 ar
     2     1     6 ar
     3     2     3 ar
     4     3     4 ar
     5     4     5 ar
     6     5     6 ar
     7     6     7 1
     8     7     8 1
     9     8     9 1
    10     9    10 1
    11     9    19 2
    12    10    11 ar
    13    10    17 ar
    14    11    12 1
    15    11    13 ar
    16    13    14 ar
    17    14    15 1
    18    14    16 ar
    19    16    17 ar
    20    17    18 1
    21    18    19 1
    22     1    20 1
    23     2    21 1
    24     3    22 1
    25     4    23 1
    26     5    24 1
    27     7    25 1
    28     7    26 1
    29     8    27 1
    30     8    28 1
    31    19    29 1
    32    12    30 1
    33    12    31 1
    34    15    32 1
    35    15    33 1
    36    18    34 1
@<TRIPOS>SUBSTRUCTURE
     1 H0V         1 TEMP              0 ****  ****    0 ROOT
