@<TRIPOS>MOLECULE
H0V
   34    36     1     0     0
SMALL
bcc


@<TRIPOS>ATOM
      1 CAF          0.0000     0.0000     0.0000 ca         1 H0V      -0.099500
      2 CAD          1.3820     0.0000     0.0000 ca         1 H0V      -0.098000
      3 CAC          2.0740     0.0000     1.1970 ca         1 H0V      -0.105000
      4 CAE          1.3830    -0.0000     2.3940 ca         1 H0V      -0.098000
      5 CAG          0.0010     0.0010     2.3950 ca         1 H0V      -0.099500
      6 CAN         -0.6900    -0.0000     1.1980 ca         1 H0V      -0.089300
      7 CAI         -2.1980    -0.0000     1.1990 c3         1 H0V       0.028900
      8 CAJ         -2.7070    -1.4430     1.1970 c3         1 H0V       0.068800
      9 CAQ         -4.2150    -1.4420     1.1980 cc         1 H0V      -0.109400
     10 C5          -5.0870    -1.3390     0.0290 ca         1 H0V      -0.368400
     11 C6          -4.8820    -1.2170    -1.3550 ca         1 H0V       0.595200
     12 NAB         -3.6030    -1.1720    -1.8790 nv         1 H0V      -0.616500
     13 N1          -5.9460    -1.1480    -2.1490 nb         1 H0V      -0.692000
     14 C2          -7.1750    -1.1910    -1.6490 ca         1 H0V       0.736900
     15 NAA         -8.2500    -1.1140    -2.5180 nv         1 H0V      -0.629500
     16 N3          -7.4120    -1.3060    -0.3530 nb         1 H0V      -0.653000
     17 C4          -6.4050    -1.3810     0.5170 ca         1 H0V       0.275800
     18 NAM         -6.3280    -1.5020     1.8770 na         1 H0V       0.267900
     19 CAH         -5.0140    -1.5420     2.2710 cd         1 H0V      -0.279100
     20 HAF         -0.5420    -0.0000    -0.9380 ha         1 H0V       0.104500
     21 HAD          1.9240     0.0000    -0.9380 ha         1 H0V       0.101500
     22 HAC          3.1580    -0.0000     1.1960 ha         1 H0V       0.102000
     23 HAE          1.9250     0.0000     3.3320 ha         1 H0V       0.101500
     24 HAG         -0.5400     0.0010     3.3340 ha         1 H0V       0.104500
     25 HAI1        -2.5590     0.5120     0.3150 hc         1 H0V       0.022200
     26 HAI2        -2.5580     0.5100     2.0840 hc         1 H0V       0.022200
     27 HAJ1        -2.3470    -1.9530     0.3120 hc         1 H0V       0.017700
     28 HAJ2        -2.3460    -1.9540     2.0810 hc         1 H0V       0.017700
     29 HAH         -4.6740    -1.6360     3.2960 h4         1 H0V       0.146000
     30 HAB1        -3.0080    -1.9730    -1.8130 hn         1 H0V       0.277800
     31 HAB2        -3.2960    -0.3600    -2.3780 hn         1 H0V       0.277800
     32 HAA1        -8.5280    -0.2290    -2.8940 hn         1 H0V       0.276300
     33 HAA2        -8.7520    -1.9430    -2.7670 hn         1 H0V       0.276300
     34 HAM         -7.1150    -1.5590     2.4940 hn         1 H0V       0.119700
@<TRIPOS>BOND
     1     1     2 ar  
     2     1     6 ar  
     3     1    20 1   
     4     2     3 ar  
     5     2    21 1   
     6     3     4 ar  
     7     3    22 1   
     8     4     5 ar  
     9     4    23 1   
    10     5     6 ar  
    11     5    24 1   
    12     6     7 1   
    13     7     8 1   
    14     7    25 1   
    15     7    26 1   
    16     8     9 1   
    17     8    27 1   
    18     8    28 1   
    19     9    10 1   
    20     9    19 2   
    21    10    11 ar  
    22    10    17 ar  
    23    11    12 1   
    24    11    13 ar  
    25    12    30 1   
    26    12    31 1   
    27    13    14 ar  
    28    14    15 1   
    29    14    16 ar  
    30    15    32 1   
    31    15    33 1   
    32    16    17 ar  
    33    17    18 1   
    34    18    19 1   
    35    18    34 1   
    36    19    29 1   
@<TRIPOS>SUBSTRUCTURE
     1 H0V         1 TEMP              0 ****  ****    0 ROOT
