@<TRIPOS>MOLECULE
molecule
   26    27     1     0     0
SMALL
bcc


@<TRIPOS>ATOM
      1 C01          0.0000     0.0000     0.0000 c3         1 H0X       0.071800
      2 C02         -0.4900     0.0000    -1.3870 c1         1 H0X       0.209700
      3 N03         -0.8790     0.0170    -2.4550 n1         1 H0X      -0.330800
      4 S04          1.8100     0.0000     0.0000 ss         1 H0X      -0.146300
      5 C05          2.1160     0.0000     1.7350 cc         1 H0X       0.514800
      6 N06          3.4020    -0.0010     2.1860 ns         1 H0X      -0.430400
      7 C07          3.6550    -0.0010     3.5110 c          1 H0X       0.690700
      8 C08          2.5750     0.0000     4.4070 cc         1 H0X      -0.313200
      9 C09          1.2860     0.0010     3.8960 cd         1 H0X       0.264400
     10 C10          0.1220     0.0010     4.8130 ca         1 H0X      -0.064800
     11 C11         -1.1750     0.0020     4.2990 ca         1 H0X      -0.093000
     12 C12         -2.2550     0.0030     5.1580 ca         1 H0X      -0.135500
     13 C13         -2.0520     0.0040     6.5270 ca         1 H0X      -0.109000
     14 C14         -0.7690     0.0030     7.0430 ca         1 H0X      -0.135500
     15 C15          0.3180    -0.0040     6.1930 ca         1 H0X      -0.093000
     16 N16          1.0970     0.0060     2.5690 nd         1 H0X      -0.691300
     17 O17          4.8030    -0.0010     3.9240 o          1 H0X      -0.634500
     18 H01         -0.3610    -0.8850     0.5110 h1         1 H0X       0.110700
     19 H01A        -0.3610     0.8840     0.5110 h1         1 H0X       0.110700
     20 HN06         4.1600     0.0620     1.5360 hn         1 H0X       0.345500
     21 H08          2.7560     0.0000     5.4750 ha         1 H0X       0.174000
     22 H11         -1.3330     0.0320     3.2270 ha         1 H0X       0.141000
     23 H12         -3.2630     0.0030     4.7610 ha         1 H0X       0.135000
     24 H13         -2.9010     0.0040     7.2000 ha         1 H0X       0.133000
     25 H14         -0.6160     0.0040     8.1150 ha         1 H0X       0.135000
     26 H15          1.3230     0.0220     6.5980 ha         1 H0X       0.141000
@<TRIPOS>BOND
     1     1     2 1
     2     1     4 1
     3     2     3 3
     4     4     5 1
     5     5     6 1
     6     5    16 2
     7     6     7 1
     8     7     8 1
     9     7    17 2
    10     8     9 2
    11     9    10 1
    12     9    16 1
    13    10    11 ar
    14    10    15 ar
    15    11    12 ar
    16    12    13 ar
    17    13    14 ar
    18    14    15 ar
    19     1    18 1
    20     1    19 1
    21     6    20 1
    22     8    21 1
    23    11    22 1
    24    12    23 1
    25    13    24 1
    26    14    25 1
    27    15    26 1
@<TRIPOS>SUBSTRUCTURE
     1 H0X         1 TEMP              0 ****  ****    0 ROOT
