@<TRIPOS>MOLECULE
H0X
   26    27     1     0     0
SMALL
bcc


@<TRIPOS>ATOM
      1 C01          0.0000     0.0000     0.0000 c3         1 H0X       0.238800
      2 C02         -0.4900     0.0000    -1.3870 c1         1 H0X       0.185700
      3 N03         -0.8790     0.0170    -2.4550 n1         1 H0X      -0.340800
      4 S04          1.8100     0.0000     0.0000 ss         1 H0X      -0.267300
      5 C05          2.1160     0.0000     1.7350 cc         1 H0X       0.334800
      6 N06          3.4020    -0.0010     2.1860 ns         1 H0X       0.067600
      7 C07          3.6550    -0.0010     3.5110 c          1 H0X       0.586700
      8 C08          2.5750     0.0000     4.4070 cc         1 H0X      -0.295200
      9 C09          1.2860     0.0010     3.8960 cd         1 H0X       0.234400
     10 C10          0.1220     0.0010     4.8130 ca         1 H0X      -0.074800
     11 C11         -1.1750     0.0020     4.2990 ca         1 H0X      -0.070000
     12 C12         -2.2550     0.0030     5.1580 ca         1 H0X      -0.107000
     13 C13         -2.0520     0.0040     6.5270 ca         1 H0X      -0.080000
     14 C14         -0.7690     0.0030     7.0430 ca         1 H0X      -0.107000
     15 C15          0.3180    -0.0040     6.1930 ca         1 H0X      -0.070000
     16 N16          1.0970     0.0060     2.5690 nd         1 H0X      -0.585300
     17 O17          4.8030    -0.0010     3.9240 o          1 H0X      -0.674500
     18 H01         -0.3610    -0.8850     0.5110 h1         1 H0X       0.066700
     19 H01A        -0.3610     0.8840     0.5110 h1         1 H0X       0.066700
     20 HN06         4.1600     0.0620     1.5360 hn         1 H0X       0.189500
     21 H08          2.7560     0.0000     5.4750 ha         1 H0X       0.155000
     22 H11         -1.3330     0.0320     3.2270 ha         1 H0X       0.114500
     23 H12         -3.2630     0.0030     4.7610 ha         1 H0X       0.106500
     24 H13         -2.9010     0.0040     7.2000 ha         1 H0X       0.103000
     25 H14         -0.6160     0.0040     8.1150 ha         1 H0X       0.106500
     26 H15          1.3230     0.0220     6.5980 ha         1 H0X       0.114500
@<TRIPOS>BOND
     1     1     2 1   
     2     1     4 1   
     3     1    18 1   
     4     1    19 1   
     5     2     3 3   
     6     4     5 1   
     7     5     6 1   
     8     5    16 2   
     9     6     7 1   
    10     6    20 1   
    11     7     8 1   
    12     7    17 2   
    13     8     9 2   
    14     8    21 1   
    15     9    10 1   
    16     9    16 1   
    17    10    11 ar  
    18    10    15 ar  
    19    11    12 ar  
    20    11    22 1   
    21    12    13 ar  
    22    12    23 1   
    23    13    14 ar  
    24    13    24 1   
    25    14    15 ar  
    26    14    25 1   
    27    15    26 1   
@<TRIPOS>SUBSTRUCTURE
     1 H0X         1 TEMP              0 ****  ****    0 ROOT
