@<TRIPOS>MOLECULE
molecule
   47    51     1     0     0
SMALL
bcc


@<TRIPOS>ATOM
      1 O82          0.0000     0.0000     0.0000 o          1 H0Y      -0.815300
      2 C28          1.3470     0.0000     0.0000 c          1 H0Y       0.778100
      3 O81          1.9540     0.0000     1.0520 o          1 H0Y      -0.815300
      4 C24          2.0870    -0.0010    -1.2820 ca         1 H0Y       0.416800
      5 N23          1.4170    -0.0020    -2.4270 nb         1 H0Y      -0.632000
      6 C25          3.4810     0.0030    -1.2740 ca         1 H0Y      -0.224300
      7 C26          4.1650     0.0020    -2.4800 ca         1 H0Y      -0.130000
      8 C27          3.4360    -0.0040    -3.6550 ca         1 H0Y      -0.271300
      9 C22          2.0410    -0.0040    -3.5930 cp         1 H0Y       0.439800
     10 C19          1.2500    -0.0050    -4.8490 cp         1 H0Y      -0.124500
     11 C20          1.8930    -0.1120    -6.0820 ca         1 H0Y      -0.116000
     12 C21          1.1610    -0.1110    -7.2520 ca         1 H0Y      -0.150000
     13 C16         -0.2190    -0.0060    -7.2180 ca         1 H0Y      -0.076300
     14 C15         -0.9820    -0.0020    -8.5140 c3         1 H0Y      -0.031100
     15 C14         -2.4310    -0.4360    -8.3070 c3         1 H0Y      -0.073400
     16 C13         -3.0780     0.4500    -7.2350 c3         1 H0Y      -0.154700
     17 C18         -0.1370     0.0940    -4.8010 ca         1 H0Y      -0.042000
     18 C17         -0.8700     0.0970    -5.9870 ca         1 H0Y      -0.126900
     19 C12         -2.3450     0.1960    -5.9350 ce         1 H0Y       0.374900
     20 N11         -2.9870     0.0720    -4.8140 n2         1 H0Y      -0.330400
     21 N10         -4.3840     0.1700    -4.7930 nu         1 H0Y      -0.553300
     22 C8          -5.0670     0.0370    -3.6000 cc         1 H0Y       0.689100
     23 S9          -6.8140     0.1390    -3.4280 ss         1 H0Y      -0.232100
     24 C4          -6.6720    -0.1400    -1.6930 ca         1 H0Y      -0.059100
     25 C3          -7.6400    -0.2230    -0.6960 ca         1 H0Y      -0.094000
     26 C2          -7.2710    -0.4520     0.6110 ca         1 H0Y      -0.142000
     27 N7          -4.5160    -0.1850    -2.4570 nd         1 H0Y      -0.585100
     28 C5          -5.3170    -0.2870    -1.3790 ca         1 H0Y       0.169400
     29 C6          -4.9630    -0.5220    -0.0330 ca         1 H0Y      -0.067000
     30 C1          -5.9310    -0.6000     0.9360 ca         1 H0Y      -0.128000
     31 H25          4.0180    -0.1520    -0.3460 ha         1 H0Y       0.155000
     32 H26          5.2250     0.2250    -2.5010 ha         1 H0Y       0.113000
     33 H27          3.9360     0.1500    -4.6040 ha         1 H0Y       0.111000
     34 H20          2.9720    -0.1980    -6.1210 ha         1 H0Y       0.130000
     35 H18         -0.6350     0.2720    -3.8560 ha         1 H0Y       0.203000
     36 H21          1.6710    -0.1950    -8.2040 ha         1 H0Y       0.118000
     37 H151        -0.9680     0.9990    -8.9290 hc         1 H0Y       0.044200
     38 H152        -0.5040    -0.6850    -9.2070 hc         1 H0Y       0.044200
     39 H141        -2.4550    -1.4690    -7.9830 hc         1 H0Y       0.044200
     40 H142        -2.9750    -0.3310    -9.2380 hc         1 H0Y       0.044200
     41 H131        -4.1170     0.1670    -7.1190 hc         1 H0Y       0.049700
     42 H132        -2.9590     1.4900    -7.5130 hc         1 H0Y       0.049700
     43 H10         -4.8840     0.3750    -5.6350 hn         1 H0Y       0.434800
     44 H3          -8.6870    -0.1070    -0.9500 ha         1 H0Y       0.122000
     45 H2          -8.0270    -0.5160     1.3850 ha         1 H0Y       0.123000
     46 H1          -5.6450    -0.7800     1.9660 ha         1 H0Y       0.136000
     47 H6          -3.9210    -0.6400     0.2370 ha         1 H0Y       0.182000
@<TRIPOS>BOND
     1     1     2 1
     2     2     3 1
     3     2     4 1
     4     4     5 ar
     5     4     6 ar
     6     5     9 ar
     7     6     7 ar
     8     7     8 ar
     9     8     9 ar
    10     9    10 1
    11    10    11 ar
    12    10    17 ar
    13    11    12 ar
    14    12    13 ar
    15    13    14 1
    16    13    18 ar
    17    14    15 1
    18    15    16 1
    19    16    19 1
    20    17    18 ar
    21    18    19 1
    22    19    20 2
    23    20    21 1
    24    21    22 1
    25    22    23 1
    26    22    27 2
    27    23    24 1
    28    24    25 ar
    29    24    28 ar
    30    25    26 ar
    31    26    30 ar
    32    27    28 1
    33    28    29 ar
    34    29    30 ar
    35     6    31 1
    36     7    32 1
    37     8    33 1
    38    11    34 1
    39    17    35 1
    40    12    36 1
    41    14    37 1
    42    14    38 1
    43    15    39 1
    44    15    40 1
    45    16    41 1
    46    16    42 1
    47    21    43 1
    48    25    44 1
    49    26    45 1
    50    30    46 1
    51    29    47 1
@<TRIPOS>SUBSTRUCTURE
     1 H0Y         1 TEMP              0 ****  ****    0 ROOT
