@<TRIPOS>MOLECULE
H0Z
   44    49     1     0     0
SMALL
bcc


@<TRIPOS>ATOM
      1 C01          0.0000     0.0000     0.0000 c3         1 H0Z       0.140100
      2 N02          1.4680     0.0000     0.0000 n3         1 H0Z      -0.535600
      3 C04          1.9950     0.0000     1.3740 c3         1 H0Z       0.152800
      4 C05          3.4790    -0.3690     1.3250 c3         1 H0Z       0.037900
      5 C06          4.1880     0.4930     0.3110 ca         1 H0Z      -0.060300
      6 C07          3.4970     1.1930    -0.6550 ca         1 H0Z      -0.084300
      7 C08          4.1890     1.9680    -1.5740 ca         1 H0Z      -0.102000
      8 C09          5.5700     2.0480    -1.5250 ca         1 H0Z       0.055100
      9 O10          6.4670     2.7290    -2.2960 os         1 H0Z      -0.311900
     10 C11          7.6860     2.7600    -1.5300 c3         1 H0Z       0.432200
     11 O12          7.6020     1.5840    -0.7040 os         1 H0Z      -0.311900
     12 C13          6.2670     1.3440    -0.5470 ca         1 H0Z       0.061100
     13 C14          5.5720     0.5700     0.3650 ca         1 H0Z      -0.091000
     14 C15          1.9950     1.1480    -0.7460 c3         1 H0Z       0.188800
     15 C16          1.5800     1.0290    -2.2140 c3         1 H0Z       0.237400
     16 O17          0.1360     1.1480    -2.3360 os         1 H0Z      -0.381900
     17 C18         -0.3540     0.0170    -2.8700 c          1 H0Z       0.824200
     18 O19         -1.5290    -0.1920    -3.0990 o          1 H0Z      -0.608500
     19 C20          0.7370    -0.9340    -3.1380 ca         1 H0Z      -0.205600
     20 C21          0.7550    -2.2250    -3.6790 ca         1 H0Z       0.152100
     21 O22         -0.2440    -3.0280    -4.1370 os         1 H0Z      -0.292900
     22 C23          0.3150    -4.3540    -4.1780 c3         1 H0Z       0.428200
     23 O24          1.7250    -4.1240    -4.3640 os         1 H0Z      -0.311900
     24 C25          1.9680    -2.8970    -3.8170 ca         1 H0Z       0.038100
     25 C26          3.1470    -2.2880    -3.4210 ca         1 H0Z      -0.054000
     26 C27          3.1280    -1.0100    -2.8840 ca         1 H0Z      -0.077000
     27 C28          1.9400    -0.3360    -2.7440 ca         1 H0Z      -0.085300
     28 H1          -0.3610     0.9610    -0.3440 h1         1 H0Z       0.019700
     29 H2          -0.3610    -0.7790    -0.6600 h1         1 H0Z       0.019700
     30 H3          -0.3610    -0.1820     1.0050 h1         1 H0Z       0.019700
     31 H5           1.4590    -0.7300     1.9690 h1         1 H0Z       0.014700
     32 H6           1.8800     0.9860     1.8080 h1         1 H0Z       0.014700
     33 H7           3.9200    -0.2100     2.3010 hc         1 H0Z       0.027700
     34 H8           3.5800    -1.4100     1.0430 hc         1 H0Z       0.027700
     35 H9           3.6440     2.5260    -2.3260 ha         1 H0Z       0.121000
     36 H10          8.5470     2.7030    -2.1850 h2         1 H0Z       0.013200
     37 H11          6.1130     0.0210     1.1270 ha         1 H0Z       0.117000
     38 H12          1.5870     2.0600    -0.3280 h1         1 H0Z       0.031700
     39 H13          2.0660     1.7960    -2.8060 h1         1 H0Z       0.053700
     40 H14          0.1350    -4.8700    -3.2430 h2         1 H0Z       0.016200
     41 H15          4.0880    -2.8130    -3.5310 ha         1 H0Z       0.115000
     42 H16          4.0570    -0.5330    -2.5940 ha         1 H0Z       0.123000
     43 H18          7.7250     3.6520    -0.9160 h2         1 H0Z       0.013200
     44 H4          -0.0910    -4.9110    -5.0130 h2         1 H0Z       0.016200
@<TRIPOS>BOND
     1     1     2 1   
     2     1    28 1   
     3     1    29 1   
     4     1    30 1   
     5     2     3 1   
     6     2    14 1   
     7     3     4 1   
     8     3    31 1   
     9     3    32 1   
    10     4     5 1   
    11     4    33 1   
    12     4    34 1   
    13     5     6 ar  
    14     5    13 ar  
    15     6     7 ar  
    16     6    14 1   
    17     7     8 ar  
    18     7    35 1   
    19     8     9 1   
    20     8    12 ar  
    21     9    10 1   
    22    10    11 1   
    23    10    36 1   
    24    10    43 1   
    25    11    12 1   
    26    12    13 ar  
    27    13    37 1   
    28    14    15 1   
    29    14    38 1   
    30    15    16 1   
    31    15    27 1   
    32    15    39 1   
    33    16    17 1   
    34    17    18 2   
    35    17    19 1   
    36    19    20 ar  
    37    19    27 ar  
    38    20    21 1   
    39    20    24 ar  
    40    21    22 1   
    41    22    23 1   
    42    22    40 1   
    43    22    44 1   
    44    23    24 1   
    45    24    25 ar  
    46    25    26 ar  
    47    25    41 1   
    48    26    27 ar  
    49    26    42 1   
@<TRIPOS>SUBSTRUCTURE
     1 H0Z         1 TEMP              0 ****  ****    0 ROOT
