@<TRIPOS>MOLECULE
molecule
   44    49     1     0     0
SMALL
bcc


@<TRIPOS>ATOM
      1 C01          0.0000     0.0000     0.0000 c3         1 H0Z       0.133100
      2 N02          1.4680     0.0000     0.0000 n3         1 H0Z      -0.722600
      3 C04          1.9950     0.0000     1.3740 c3         1 H0Z       0.161800
      4 C05          3.4790    -0.3690     1.3250 c3         1 H0Z      -0.028100
      5 C06          4.1880     0.4930     0.3110 ca         1 H0Z      -0.051300
      6 C07          3.4970     1.1930    -0.6550 ca         1 H0Z      -0.078300
      7 C08          4.1890     1.9680    -1.5740 ca         1 H0Z      -0.122000
      8 C09          5.5700     2.0480    -1.5250 ca         1 H0Z       0.047100
      9 O10          6.4670     2.7290    -2.2960 os         1 H0Z      -0.322900
     10 C11          7.6860     2.7600    -1.5300 c3         1 H0Z       0.331200
     11 O12          7.6020     1.5840    -0.7040 os         1 H0Z      -0.322900
     12 C13          6.2670     1.3440    -0.5470 ca         1 H0Z       0.055100
     13 C14          5.5720     0.5700     0.3650 ca         1 H0Z      -0.117000
     14 C15          1.9950     1.1480    -0.7460 c3         1 H0Z       0.221800
     15 C16          1.5800     1.0290    -2.2140 c3         1 H0Z       0.195400
     16 O17          0.1360     1.1480    -2.3360 os         1 H0Z      -0.388900
     17 C18         -0.3540     0.0170    -2.8700 c          1 H0Z       0.750200
     18 O19         -1.5290    -0.1920    -3.0990 o          1 H0Z      -0.559500
     19 C20          0.7370    -0.9340    -3.1380 ca         1 H0Z      -0.188600
     20 C21          0.7550    -2.2250    -3.6790 ca         1 H0Z       0.132100
     21 O22         -0.2440    -3.0280    -4.1370 os         1 H0Z      -0.302900
     22 C23          0.3150    -4.3540    -4.1780 c3         1 H0Z       0.327200
     23 O24          1.7250    -4.1240    -4.3640 os         1 H0Z      -0.322900
     24 C25          1.9680    -2.8970    -3.8170 ca         1 H0Z       0.036100
     25 C26          3.1470    -2.2880    -3.4210 ca         1 H0Z      -0.082000
     26 C27          3.1280    -1.0100    -2.8840 ca         1 H0Z      -0.097000
     27 C28          1.9400    -0.3360    -2.7440 ca         1 H0Z      -0.071300
     28 H1          -0.3610     0.9610    -0.3440 h1         1 H0Z       0.046700
     29 H2          -0.3610    -0.7790    -0.6600 h1         1 H0Z       0.046700
     30 H3          -0.3610    -0.1820     1.0050 h1         1 H0Z       0.046700
     31 H5           1.4590    -0.7300     1.9690 h1         1 H0Z       0.042700
     32 H6           1.8800     0.9860     1.8080 h1         1 H0Z       0.042700
     33 H7           3.9200    -0.2100     2.3010 hc         1 H0Z       0.062200
     34 H8           3.5800    -1.4100     1.0430 hc         1 H0Z       0.062200
     35 H9           3.6440     2.5260    -2.3260 ha         1 H0Z       0.145000
     36 H10          8.5470     2.7030    -2.1850 h2         1 H0Z       0.071700
     37 H11          6.1130     0.0210     1.1270 ha         1 H0Z       0.148000
     38 H12          1.5870     2.0600    -0.3280 h1         1 H0Z       0.055700
     39 H13          2.0660     1.7960    -2.8060 h1         1 H0Z       0.092700
     40 H14          0.1350    -4.8700    -3.2430 h2         1 H0Z       0.074700
     41 H15          4.0880    -2.8130    -3.5310 ha         1 H0Z       0.151000
     42 H16          4.0570    -0.5330    -2.5940 ha         1 H0Z       0.153000
     43 H18          7.7250     3.6520    -0.9160 h2         1 H0Z       0.071700
     44 H4          -0.0910    -4.9110    -5.0130 h2         1 H0Z       0.074700
@<TRIPOS>BOND
     1    23    24 1
     2    22    21 1
     3    24    25 ar
     4    24    20 ar
     5    25    26 ar
     6    21    20 1
     7    20    19 ar
     8    26    27 ar
     9    19    27 ar
    10    19    17 1
    11    27    15 1
    12     9    10 1
    13     9     8 1
    14    17    18 2
    15    17    16 1
    16    10    11 1
    17     7     8 ar
    18     7     6 ar
    19     8    12 ar
    20    15    16 1
    21    15    14 1
    22    14     6 1
    23    14     2 1
    24     6     5 ar
    25    11    12 1
    26    12    13 ar
    27     2     1 1
    28     2     3 1
    29     5    13 ar
    30     5     4 1
    31     3     4 1
    32     1    28 1
    33     1    29 1
    34     1    30 1
    35     3    31 1
    36     3    32 1
    37     4    33 1
    38     4    34 1
    39     7    35 1
    40    10    36 1
    41    13    37 1
    42    14    38 1
    43    15    39 1
    44    22    40 1
    45    25    41 1
    46    26    42 1
    47    23    22 1
    48    10    43 1
    49    22    44 1
@<TRIPOS>SUBSTRUCTURE
     1 H0Z         1 TEMP              0 ****  ****    0 ROOT
