@<TRIPOS>MOLECULE
molecule
   53    56     1     0     0
SMALL
bcc


@<TRIPOS>ATOM
      1 C1           0.0000     0.0000     0.0000 c3         1 H10       0.135800
      2 O2          -0.4760    -0.0000    -1.3470 os         1 H10      -0.340900
      3 C3          -0.0330    -0.9970    -2.1580 ca         1 H10       0.037100
      4 C4          -0.3600    -0.9920    -3.5040 ca         1 H10      -0.114000
      5 C5           0.0960    -2.0160    -4.3320 ca         1 H10      -0.032000
      6 C6          -0.2380    -2.0170    -5.7250 cg         1 H10       0.018000
      7 C7          -0.5140    -1.9980    -6.8650 c1         1 H10      -0.198100
      8 C8          -0.7950    -2.2490    -8.4730 c3         1 H10       0.307800
      9 N9          -0.3670    -3.7080    -9.1050 n          1 H10      -0.305300
     10 C10          0.9250    -4.0550    -8.8600 c          1 H10       0.601100
     11 O11          1.8380    -3.1520    -8.4040 o          1 H10      -0.542100
     12 N12          1.5880    -5.3160    -9.0620 nz         1 H10      -0.700400
     13 O13         -1.5210    -4.3330    -9.5960 oh         1 H10      -0.412100
     14 C14         -0.3300    -1.1830    -9.3830 c3         1 H10      -0.178100
     15 C15          0.8810    -3.0410    -3.7990 ca         1 H10      -0.118000
     16 C16          1.2010    -3.0370    -2.4570 ca         1 H10      -0.042000
     17 C17          0.7530    -2.0170    -1.6380 ca         1 H10      -0.310000
     18 C18          1.5300     0.0000     0.0000 c3         1 H10      -0.133733
     19 C19          2.0400     0.0000     1.4420 c3         1 H10      -0.031367
     20 C20          1.5300     1.2500     2.1630 c3         1 H10      -0.114733
     21 C21          0.0000     1.2500     2.1630 c3         1 H10      -0.031367
     22 C22         -0.5100     0.0010     2.8850 c3         1 H10      -0.114733
     23 C23         -0.0000    -1.2480     2.1640 c3         1 H10      -0.031367
     24 C24          1.5290    -1.2490     2.1640 c3         1 H10      -0.114733
     25 C25         -0.5110    -1.2480     0.7210 c3         1 H10      -0.133733
     26 C26         -0.5100     1.2500     0.7210 c3         1 H10      -0.133733
     27 H4          -0.2660    -0.1750    -4.2090 ha         1 H10       0.153000
     28 H8          -1.8420    -2.3260    -8.7400 h1         1 H10       0.073700
     29 HN12         2.4370    -5.6190    -8.6280 hn         1 H10       0.480467
     30 HN1A         1.0770    -5.5640    -9.8870 hn         1 H10       0.480467
     31 HO13        -2.1310    -3.9730   -10.2190 ho         1 H10       0.484000
     32 H14         -0.7200    -0.1750    -9.4560 hc         1 H10       0.087700
     33 H14A        -0.0020    -1.5300   -10.3550 hc         1 H10       0.087700
     34 H14B         0.5500    -0.9670    -8.7900 hc         1 H10       0.087700
     35 H15          1.0910    -3.8460    -4.4930 ha         1 H10       0.121000
     36 H16          1.7500    -3.7940    -1.9100 ha         1 H10       0.152000
     37 H17          0.3570    -1.1610    -1.1040 ha         1 H10       0.336000
     38 H18          2.2020    -0.8460    -0.0830 hc         1 H10       0.075033
     39 H18A         1.9600     0.7710    -0.6270 hc         1 H10       0.075033
     40 H19          3.1240    -0.0000     1.4430 hc         1 H10       0.060033
     41 H20          2.0460     1.3130     3.1140 hc         1 H10       0.062700
     42 H20A         1.9680     2.0500     1.5790 hc         1 H10       0.062700
     43 H21         -0.3600     2.1350     2.6730 hc         1 H10       0.060033
     44 H22         -1.5860    -0.0560     2.7700 hc         1 H10       0.062700
     45 H22A        -0.4070     0.6630     3.7370 hc         1 H10       0.062700
     46 H23         -0.3620    -2.1320     2.6750 hc         1 H10       0.060033
     47 H24          1.6530    -2.3220     2.0840 hc         1 H10       0.062700
     48 H24A         1.3620    -1.0620     3.2180 hc         1 H10       0.062700
     49 H25         -0.8300    -1.5670    -0.2640 hc         1 H10       0.075033
     50 H25A        -1.4740    -1.0150     1.1580 hc         1 H10       0.075033
     51 H26         -0.2300     2.1040     0.1160 hc         1 H10       0.075033
     52 H26A        -1.5240     1.1590     1.0910 hc         1 H10       0.075033
     53 H123         1.0550    -6.1020    -8.7450 hn         1 H10       0.480467
@<TRIPOS>BOND
     1     1     2 1
     2     1    18 1
     3     1    25 1
     4     1    26 1
     5     2     3 1
     6     3     4 ar
     7     3    17 ar
     8     4     5 ar
     9     5     6 1
    10     5    15 ar
    11     6     7 3
    12     7     8 1
    13     8     9 1
    14     8    14 1
    15     9    10 1
    16     9    13 1
    17    10    11 2
    18    10    12 1
    19    15    16 ar
    20    16    17 ar
    21    18    19 1
    22    19    20 1
    23    19    24 1
    24    20    21 1
    25    21    22 1
    26    21    26 1
    27    22    23 1
    28    23    24 1
    29    23    25 1
    30     4    27 1
    31     8    28 1
    32    12    29 1
    33    12    30 1
    34    13    31 1
    35    14    32 1
    36    14    33 1
    37    14    34 1
    38    15    35 1
    39    16    36 1
    40    17    37 1
    41    18    38 1
    42    18    39 1
    43    19    40 1
    44    20    41 1
    45    20    42 1
    46    21    43 1
    47    22    44 1
    48    22    45 1
    49    23    46 1
    50    24    47 1
    51    24    48 1
    52    25    49 1
    53    25    50 1
    54    26    51 1
    55    26    52 1
    56    53    12 1
@<TRIPOS>SUBSTRUCTURE
     1 H10         1 TEMP              0 ****  ****    0 ROOT
