@<TRIPOS>MOLECULE
H11
   45    46     1     0     0
SMALL
bcc


@<TRIPOS>ATOM
      1 C4           0.0000     0.0000     0.0000 c2         1 H11       0.577100
      2 C5           2.5750     1.2600     2.3110 c3         1 H11       0.008600
      3 C6           2.5790    -1.2580     2.3110 c3         1 H11       0.040900
      4 C7          -2.2530    -0.0020    -0.9620 c3         1 H11       0.087500
      5 C8          -2.8900    -0.6110    -2.2120 c3         1 H11      -0.047900
      6 C10         -3.8430    -1.7360    -1.8040 c3         1 H11      -0.043900
      7 C13         -4.9930     0.9150     0.1820 c3         1 H11      -0.035900
      8 C15          2.4800     3.7550     2.4030 c3         1 H11       0.012900
      9 C11         -5.1330    -1.1310    -1.2450 c3         1 H11      -0.035900
     10 C12         -4.8810    -0.6110     0.1720 c3         1 H11      -0.049400
     11 C14         -4.2580     1.4880    -1.0310 c3         1 H11      -0.043900
     12 C9          -2.7490     1.4350    -0.7860 c3         1 H11      -0.047900
     13 N17         -0.7950    -0.0010    -1.1070 nu         1 H11      -0.347200
     14 S            1.7220     0.0000     0.0000 ss         1 H11      -0.347300
     15 N           -0.4190     0.0050     1.2430 ne         1 H11      -0.728100
     16 C2           0.4070     0.0050     2.2560 c          1 H11       0.742500
     17 O            0.0520     0.0100     3.4180 o          1 H11      -0.556100
     18 C            1.8590     0.0000     1.8200 c3         1 H11      -0.067900
     19 C3           1.7640     2.4950     1.9100 c3         1 H11      -0.062400
     20 H5           2.6690     1.2250     3.3900 hc         1 H11       0.032700
     21 H5A          3.5600     1.3140     1.8640 hc         1 H11       0.032700
     22 H6           2.8170    -1.1500     3.3620 hc         1 H11       0.018033
     23 H6A          3.4930    -1.3940     1.7460 hc         1 H11       0.018033
     24 H6B          1.9360    -2.1190     2.1730 hc         1 H11       0.018033
     25 H7          -2.5340    -0.5870    -0.0950 h1         1 H11       0.094700
     26 H8          -2.1140    -1.0120    -2.8520 hc         1 H11       0.028700
     27 H8A         -3.4430     0.1540    -2.7430 hc         1 H11       0.028700
     28 H10         -3.3740    -2.3470    -1.0430 hc         1 H11       0.026950
     29 H10A        -4.0760    -2.3430    -2.6700 hc         1 H11       0.026950
     30 H13         -6.0370     1.2000     0.1380 hc         1 H11       0.022200
     31 H13A        -4.5450     1.3020     1.0890 hc         1 H11       0.022200
     32 H15          3.4660     3.8080     1.9570 hc         1 H11       0.001033
     33 H15A         2.5720     3.7200     3.4810 hc         1 H11       0.001033
     34 H15B         1.9080     4.6300     2.1170 hc         1 H11       0.001033
     35 H11         -5.9040    -1.8920    -1.2170 hc         1 H11       0.022200
     36 H11A        -5.4500    -0.3120    -1.8790 hc         1 H11       0.022200
     37 H12         -3.8870    -0.9010     0.4910 hc         1 H11       0.028700
     38 H12A        -5.6190    -1.0300     0.8460 hc         1 H11       0.028700
     39 H14         -4.5010     0.9020    -1.9090 hc         1 H11       0.026950
     40 H14A        -4.5620     2.5170    -1.1830 hc         1 H11       0.026950
     41 H9          -2.5360     1.7680     0.2230 hc         1 H11       0.028700
     42 H9A         -2.2460     2.0790    -1.4980 hc         1 H11       0.028700
     43 HN17        -0.3830     0.0200    -2.0190 hn         1 H11       0.298800
     44 H3           0.7790     2.4410     2.3570 hc         1 H11       0.029700
     45 H3A          1.6700     2.5310     0.8320 hc         1 H11       0.029700
@<TRIPOS>BOND
     1     1    13 1   
     2     1    14 1   
     3     1    15 2   
     4     2    18 1   
     5     2    19 1   
     6     2    20 1   
     7     2    21 1   
     8     3    18 1   
     9     3    22 1   
    10     3    23 1   
    11     3    24 1   
    12     4     5 1   
    13     4    12 1   
    14     4    13 1   
    15     4    25 1   
    16     5     6 1   
    17     5    26 1   
    18     5    27 1   
    19     6     9 1   
    20     6    28 1   
    21     6    29 1   
    22     7    10 1   
    23     7    11 1   
    24     7    30 1   
    25     7    31 1   
    26     8    19 1   
    27     8    32 1   
    28     8    33 1   
    29     8    34 1   
    30     9    10 1   
    31     9    35 1   
    32     9    36 1   
    33    10    37 1   
    34    10    38 1   
    35    11    12 1   
    36    11    39 1   
    37    11    40 1   
    38    12    41 1   
    39    12    42 1   
    40    13    43 1   
    41    14    18 1   
    42    15    16 1   
    43    16    17 2   
    44    16    18 1   
    45    19    44 1   
    46    19    45 1   
@<TRIPOS>SUBSTRUCTURE
     1 H11         1 TEMP              0 ****  ****    0 ROOT
