@<TRIPOS>MOLECULE
molecule
   45    46     1     0     0
SMALL
bcc


@<TRIPOS>ATOM
      1 C4           0.0000     0.0000     0.0000 c2         1 H11       0.773100
      2 C5           2.5750     1.2600     2.3110 c3         1 H11      -0.048400
      3 C6           2.5790    -1.2580     2.3110 c3         1 H11      -0.059100
      4 C7          -2.2530    -0.0020    -0.9620 c3         1 H11       0.225500
      5 C8          -2.8900    -0.6110    -2.2120 c3         1 H11      -0.099400
      6 C10         -3.8430    -1.7360    -1.8040 c3         1 H11      -0.088900
      7 C13         -4.9930     0.9150     0.1820 c3         1 H11      -0.086900
      8 C15          2.4800     3.7550     2.4030 c3         1 H11      -0.088100
      9 C11         -5.1330    -1.1310    -1.2450 c3         1 H11      -0.086900
     10 C12         -4.8810    -0.6110     0.1720 c3         1 H11      -0.091400
     11 C14         -4.2580     1.4880    -1.0310 c3         1 H11      -0.088900
     12 C9          -2.7490     1.4350    -0.7860 c3         1 H11      -0.099400
     13 N17         -0.7950    -0.0010    -1.1070 nu         1 H11      -0.810200
     14 S            1.7220     0.0000     0.0000 ss         1 H11      -0.308300
     15 N           -0.4190     0.0050     1.2430 ne         1 H11      -0.821100
     16 C2           0.4070     0.0050     2.2560 c          1 H11       0.752500
     17 O            0.0520     0.0100     3.4180 o          1 H11      -0.526100
     18 C            1.8590     0.0000     1.8200 c3         1 H11      -0.095900
     19 C3           1.7640     2.4950     1.9100 c3         1 H11      -0.098400
     20 H5           2.6690     1.2250     3.3900 hc         1 H11       0.060200
     21 H5A          3.5600     1.3140     1.8640 hc         1 H11       0.060200
     22 H6           2.8170    -1.1500     3.3620 hc         1 H11       0.051367
     23 H6A          3.4930    -1.3940     1.7460 hc         1 H11       0.051367
     24 H6B          1.9360    -2.1190     2.1730 hc         1 H11       0.051367
     25 H7          -2.5340    -0.5870    -0.0950 h1         1 H11       0.104700
     26 H8          -2.1140    -1.0120    -2.8520 hc         1 H11       0.053450
     27 H8A         -3.4430     0.1540    -2.7430 hc         1 H11       0.053450
     28 H10         -3.3740    -2.3470    -1.0430 hc         1 H11       0.049450
     29 H10A        -4.0760    -2.3430    -2.6700 hc         1 H11       0.049450
     30 H13         -6.0370     1.2000     0.1380 hc         1 H11       0.046950
     31 H13A        -4.5450     1.3020     1.0890 hc         1 H11       0.046950
     32 H15          3.4660     3.8080     1.9570 hc         1 H11       0.034367
     33 H15A         2.5720     3.7200     3.4810 hc         1 H11       0.034367
     34 H15B         1.9080     4.6300     2.1170 hc         1 H11       0.034367
     35 H11         -5.9040    -1.8920    -1.2170 hc         1 H11       0.046950
     36 H11A        -5.4500    -0.3120    -1.8790 hc         1 H11       0.046950
     37 H12         -3.8870    -0.9010     0.4910 hc         1 H11       0.050700
     38 H12A        -5.6190    -1.0300     0.8460 hc         1 H11       0.050700
     39 H14         -4.5010     0.9020    -1.9090 hc         1 H11       0.049450
     40 H14A        -4.5620     2.5170    -1.1830 hc         1 H11       0.049450
     41 H9          -2.5360     1.7680     0.2230 hc         1 H11       0.053450
     42 H9A         -2.2460     2.0790    -1.4980 hc         1 H11       0.053450
     43 HN17        -0.3830     0.0200    -2.0190 hn         1 H11       0.458800
     44 H3           0.7790     2.4410     2.3570 hc         1 H11       0.052700
     45 H3A          1.6700     2.5310     0.8320 hc         1 H11       0.052700
@<TRIPOS>BOND
     1     1    13 1
     2     1    14 1
     3     1    15 2
     4     2    18 1
     5     2    19 1
     6     3    18 1
     7     4     5 1
     8     4    12 1
     9     4    13 1
    10     5     6 1
    11     6     9 1
    12     7    10 1
    13     7    11 1
    14     8    19 1
    15     9    10 1
    16    11    12 1
    17    14    18 1
    18    15    16 1
    19    16    17 2
    20    16    18 1
    21     2    20 1
    22     2    21 1
    23     3    22 1
    24     3    23 1
    25     3    24 1
    26     4    25 1
    27     5    26 1
    28     5    27 1
    29     6    28 1
    30     6    29 1
    31     7    30 1
    32     7    31 1
    33     8    32 1
    34     8    33 1
    35     8    34 1
    36     9    35 1
    37     9    36 1
    38    10    37 1
    39    10    38 1
    40    11    39 1
    41    11    40 1
    42    12    41 1
    43    12    42 1
    44    13    43 1
    45    19    44 1
    46    19    45 1
@<TRIPOS>SUBSTRUCTURE
     1 H11         1 TEMP              0 ****  ****    0 ROOT
