@<TRIPOS>MOLECULE
H12
   44    42     1     0     0
SMALL
bcc


@<TRIPOS>ATOM
      1 CA          0.6380   -0.5700    2.7220 c2        1 H12     -0.198700
      2 CB          1.6930   -0.2660    1.7260 c3        1 H12     -0.026200
      3 CC          2.7830    0.3390    2.6690 c3        1 H12     -0.083400
      4 CD          2.9900   -0.3100    4.0460 c3        1 H12     -0.083400
      5 CE          1.7430   -0.9250    4.7600 c3        1 H12     -0.026200
      6 CF          1.0550   -1.5330    3.5970 c2        1 H12     -0.198700
      7 N1         -1.1930    2.9930   -1.2480 ne        1 H12     -0.658100
      8 C6         -0.1470    2.0700   -1.5470 c         1 H12      0.718700
      9 O2          0.8490    1.9620   -0.8080 o         1 H12     -0.564100
     10 C5         -0.3230    1.2350   -2.7550 ce        1 H12     -0.288400
     11 C4         -1.5220    0.7310   -3.1520 cf        1 H12      0.210100
     12 O4         -1.6710   -0.0170   -4.2930 oh        1 H12     -0.495100
     13 C2         -0.9300    4.1950   -0.8590 cf        1 H12      0.570100
     14 C3         -2.7830    0.8500   -2.4150 cf        1 H12     -0.107100
     15 C7         -3.9500    0.9890   -2.9790 c1        1 H12     -0.000800
     16 C8         -5.1240    1.1570   -3.5130 c2        1 H12     -0.072700
     17 C9         -2.7750    5.9450   -0.2550 c1        1 H12     -0.074500
     18 C10        -1.9440    5.1320   -0.5370 ch        1 H12     -0.198200
     19 CL         -6.1470   -0.1280   -3.9290 cl        1 H12     -0.098400
     20 C12         0.2320    0.7490   -6.9940 c2        1 H12     -0.227500
     21 C13        -0.2010   -0.4920   -7.1760 c2        1 H12     -0.227500
     22 HA         -0.8380   -0.0260   -4.7940 ho        1 H12      0.434000
     23 HB1        -0.0110    0.2610    3.0300 ha        1 H12      0.119000
     24 HB2         1.3930    0.4860    0.9560 hc        1 H12      0.053950
     25 HC1         2.0920   -1.1720    1.2080 hc        1 H12      0.053950
     26 HC2         2.5170    1.4170    2.8280 hc        1 H12      0.040450
     27 HD1         3.7570    0.3060    2.1180 hc        1 H12      0.040450
     28 HD2         3.4260    0.4590    4.7330 hc        1 H12      0.040450
     29 HE1         3.7430   -1.1330    3.9340 hc        1 H12      0.040450
     30 HE2         1.1500   -0.1210    5.2600 hc        1 H12      0.053950
     31 HF1         2.0690   -1.6630    5.5310 hc        1 H12      0.053950
     32 HF2         1.4200   -2.5130    3.2600 ha        1 H12      0.119000
     33 HN1         0.1070    4.5980   -0.7550 h4        1 H12      0.003800
     34 H7         -2.6900    0.8270   -1.3120 ha        1 H12      0.176000
     35 H9         -5.5560    2.1440   -3.7360 h4        1 H12      0.168000
     36 H10        -3.5070    6.6710   -0.0020 ha        1 H12      0.173500
     37 H111        1.8110    1.4160   -2.9930 hc        1 H12      0.050367
     38 H112        1.1050   -0.1430   -3.5770 hc        1 H12      0.050367
     39 H121        0.8660    1.3770   -4.5450 hc        1 H12      0.050367
     40 H122       -0.4250    1.5620   -6.6540 ha        1 H12      0.115000
     41 H131        1.2720    1.0500   -7.1820 ha        1 H12      0.115000
     42 H132        0.4510   -1.3040   -7.5260 ha        1 H12      0.115000
     43 H133       -1.2440   -0.7880   -6.9910 ha        1 H12      0.115000
     44 C11         0.9270    0.9610   -3.5060 c3        1 H12     -0.052900
@<TRIPOS>BOND
     1    1    2 1
     2    1    6 2
     3    1   23 1
     4    2    3 1
     5    2   24 1
     6    2   25 1
     7    3    4 1
     8    3   26 1
     9    3   27 1
    10    4    5 1
    11    4   28 1
    12    4   29 1
    13    5    6 1
    14    5   30 1
    15    5   31 1
    16    6   32 1
    17    7    8 1
    18    7   13 2
    19    8    9 2
    20    8   10 1
    21   10   11 2
    22   10   44 1
    23   11   12 1
    24   11   14 1
    25   12   22 1
    26   13   18 1
    27   13   33 1
    28   14   15 2
    29   14   34 1
    30   15   16 2
    31   16   19 1
    32   16   35 1
    33   17   18 3
    34   17   36 1
    35   20   21 2
    36   20   40 1
    37   20   41 1
    38   21   42 1
    39   21   43 1
    40   37   44 1
    41   38   44 1
    42   39   44 1
@<TRIPOS>SUBSTRUCTURE
     1 H12         1 TEMP              0 ****  ****    0 ROOT
