@<TRIPOS>MOLECULE
molecule
   66    66     1     0     0
SMALL
bcc


@<TRIPOS>ATOM
      1 O21          0.0000     0.0000     0.0000 o          1 H13      -0.615100
      2 C21          1.2130     0.0000     0.0000 c          1 H13       0.655100
      3 N2           1.8860     0.0000     1.1670 ns         1 H13      -0.580900
      4 C2           1.1530     0.0000     2.4360 c3         1 H13       0.120700
      5 C1           0.7900    -1.4370     2.8150 c3         1 H13       0.120400
      6 O1           1.9830    -2.1800     3.0690 oh         1 H13      -0.619800
      7 C3           2.0310     0.6090     3.5320 c3         1 H13      -0.081400
      8 C4           2.2910     2.0840     3.2150 c3         1 H13       0.192400
      9 C5           3.2540     2.6510     4.2260 ca         1 H13      -0.126300
     10 C6           4.5920     2.7880     3.9060 ca         1 H13      -0.111500
     11 C7           5.4740     3.3100     4.8340 ca         1 H13      -0.130500
     12 C8           5.0190     3.6940     6.0810 ca         1 H13      -0.124000
     13 C9           3.6810     3.5580     6.4010 ca         1 H13      -0.130500
     14 C10          2.7980     3.0420     5.4720 ca         1 H13      -0.111500
     15 O4           1.0610     2.8080     3.2690 oh         1 H13      -0.603800
     16 C22          1.9670    -0.0070    -1.3040 c3         1 H13      -0.158400
     17 C23          0.9740    -0.0130    -2.4680 c3         1 H13      -0.066400
     18 C24          1.7390    -0.0190    -3.7920 c3         1 H13      -0.085400
     19 C25          0.7450    -0.0240    -4.9560 c3         1 H13      -0.080400
     20 C26          1.5110    -0.0320    -6.2800 c3         1 H13      -0.082400
     21 C27          0.5170    -0.0370    -7.4440 c3         1 H13      -0.081400
     22 C28          1.2820    -0.0430    -8.7680 c3         1 H13      -0.082400
     23 C29          0.2880    -0.0490    -9.9320 c3         1 H13      -0.081400
     24 C30          1.0540    -0.0560   -11.2560 c3         1 H13      -0.082400
     25 C31          0.0600    -0.0610   -12.4200 c3         1 H13      -0.081400
     26 C32          0.8260    -0.0670   -13.7440 c3         1 H13      -0.084400
     27 C33         -0.1680    -0.0730   -14.9080 c3         1 H13      -0.092100
     28 HN2          2.8860    -0.0350     1.1680 hn         1 H13       0.316500
     29 H2           0.2480     0.5860     2.3310 h1         1 H13       0.101700
     30 H1           0.2430    -1.8980     2.0010 h1         1 H13       0.035700
     31 H1A          0.1730    -1.4300     3.7060 h1         1 H13       0.035700
     32 HO1          1.7570    -3.0540     3.3420 ho         1 H13       0.404000
     33 H3           1.5250     0.5290     4.4870 hc         1 H13       0.070200
     34 H3A          2.9740     0.0780     3.5770 hc         1 H13       0.070200
     35 H4           2.7170     2.1700     2.2230 h1         1 H13       0.037700
     36 H6           4.9490     2.4870     2.9290 ha         1 H13       0.135000
     37 H7           6.5230     3.4170     4.5830 ha         1 H13       0.130000
     38 H8           5.7120     4.1010     6.8080 ha         1 H13       0.129000
     39 H9           3.3240     3.8620     7.3770 ha         1 H13       0.130000
     40 H10          1.7490     2.9350     5.7220 ha         1 H13       0.135000
     41 HO4          1.1290     3.5830     2.7370 ho         1 H13       0.408000
     42 H22          2.5900     0.8770    -1.3660 hc         1 H13       0.058700
     43 H22A         2.5900    -0.8920    -1.3560 hc         1 H13       0.058700
     44 H23          0.3500     0.8720    -2.4150 hc         1 H13       0.058700
     45 H23A         0.3510    -0.8970    -2.4070 hc         1 H13       0.058700
     46 H24          2.3620    -0.9040    -3.8450 hc         1 H13       0.038200
     47 H24A         2.3620     0.8650    -3.8530 hc         1 H13       0.038200
     48 H25          0.1230     0.8610    -4.9040 hc         1 H13       0.043700
     49 H25A         0.1220    -0.9080    -4.8940 hc         1 H13       0.043700
     50 H26          2.1340     0.8520    -6.3420 hc         1 H13       0.040200
     51 H26A         2.1330    -0.9170    -6.3330 hc         1 H13       0.040200
     52 H27         -0.1060     0.8480    -7.3910 hc         1 H13       0.041700
     53 H27A        -0.1060    -0.9210    -7.3830 hc         1 H13       0.041700
     54 H28          1.9050    -0.9280    -8.8210 hc         1 H13       0.040700
     55 H28A         1.9050     0.8410    -8.8290 hc         1 H13       0.040700
     56 H29         -0.3340     0.8370    -9.8800 hc         1 H13       0.041700
     57 H29A        -0.3350    -0.9320    -9.8700 hc         1 H13       0.041700
     58 H30          1.6780     0.8280   -11.3180 hc         1 H13       0.040700
     59 H30A         1.6760    -0.9410   -11.3090 hc         1 H13       0.040700
     60 H31         -0.5630     0.8230   -12.3670 hc         1 H13       0.040700
     61 H31A        -0.5630    -0.9460   -12.3590 hc         1 H13       0.040700
     62 H32          1.4490    -0.9520   -13.7970 hc         1 H13       0.039700
     63 H32A         1.4480     0.8170   -13.8050 hc         1 H13       0.039700
     64 H33          0.3750    -0.0840   -15.8460 hc         1 H13       0.032367
     65 H33A        -0.7870     0.8140   -14.8590 hc         1 H13       0.032367
     66 H33B        -0.7950    -0.9550   -14.8430 hc         1 H13       0.032367
@<TRIPOS>BOND
     1     1     2 2
     2     2     3 1
     3     2    16 1
     4     3     4 1
     5     4     5 1
     6     4     7 1
     7     5     6 1
     8     7     8 1
     9     8     9 1
    10     8    15 1
    11     9    10 ar
    12     9    14 ar
    13    10    11 ar
    14    11    12 ar
    15    12    13 ar
    16    13    14 ar
    17    16    17 1
    18    17    18 1
    19    18    19 1
    20    19    20 1
    21    20    21 1
    22    21    22 1
    23    22    23 1
    24    23    24 1
    25    24    25 1
    26    25    26 1
    27    26    27 1
    28     3    28 1
    29     4    29 1
    30     5    30 1
    31     5    31 1
    32     6    32 1
    33     7    33 1
    34     7    34 1
    35     8    35 1
    36    10    36 1
    37    11    37 1
    38    12    38 1
    39    13    39 1
    40    14    40 1
    41    15    41 1
    42    16    42 1
    43    16    43 1
    44    17    44 1
    45    17    45 1
    46    18    46 1
    47    18    47 1
    48    19    48 1
    49    19    49 1
    50    20    50 1
    51    20    51 1
    52    21    52 1
    53    21    53 1
    54    22    54 1
    55    22    55 1
    56    23    56 1
    57    23    57 1
    58    24    58 1
    59    24    59 1
    60    25    60 1
    61    25    61 1
    62    26    62 1
    63    26    63 1
    64    27    64 1
    65    27    65 1
    66    27    66 1
@<TRIPOS>SUBSTRUCTURE
     1 H13         1 TEMP              0 ****  ****    0 ROOT
