@<TRIPOS>MOLECULE
molecule
   72    72     1     0     0
SMALL
bcc


@<TRIPOS>ATOM
      1 O21          0.0000     0.0000     0.0000 o          1 H15      -0.614100
      2 C21          1.2130     0.0000     0.0000 c          1 H15       0.655100
      3 N2           1.8870     0.0000     1.1670 ns         1 H15      -0.580900
      4 C2           1.1550     0.0000     2.4360 c3         1 H15       0.120700
      5 C1           0.7910    -1.4370     2.8150 c3         1 H15       0.120400
      6 O1           1.9850    -2.1800     3.0680 oh         1 H15      -0.619800
      7 C3           2.0320     0.6090     3.5310 c3         1 H15      -0.081400
      8 C4           2.2930     2.0840     3.2140 c3         1 H15       0.192400
      9 C5           3.2550     2.6520     4.2250 ca         1 H15      -0.126300
     10 C6           4.5920     2.7890     3.9050 ca         1 H15      -0.112000
     11 C7           5.4760     3.3110     4.8320 ca         1 H15      -0.130500
     12 C8           5.0210     3.6960     6.0790 ca         1 H15      -0.124000
     13 C9           3.6830     3.5590     6.4000 ca         1 H15      -0.130500
     14 C10          2.7990     3.0420     5.4710 ca         1 H15      -0.112000
     15 O4           1.0620     2.8080     3.2690 oh         1 H15      -0.603800
     16 C22          1.9670    -0.0060    -1.3050 c3         1 H15      -0.158400
     17 C23          0.9730    -0.0120    -2.4670 c3         1 H15      -0.066400
     18 C24          1.7380    -0.0190    -3.7920 c3         1 H15      -0.085400
     19 C25          0.7430    -0.0240    -4.9560 c3         1 H15      -0.080400
     20 C26          1.5080    -0.0310    -6.2810 c3         1 H15      -0.082400
     21 C27          0.5140    -0.0370    -7.4430 c3         1 H15      -0.081400
     22 C28          1.2790    -0.0430    -8.7680 c3         1 H15      -0.082400
     23 C29          0.2850    -0.0490    -9.9320 c3         1 H15      -0.082400
     24 C30          1.0500    -0.0560   -11.2570 c3         1 H15      -0.081400
     25 C31          0.0560    -0.0610   -12.4190 c3         1 H15      -0.081400
     26 C32          0.8200    -0.0680   -13.7440 c3         1 H15      -0.082400
     27 C33         -0.1730    -0.0730   -14.9080 c3         1 H15      -0.081400
     28 C34          0.5920    -0.0800   -16.2330 c3         1 H15      -0.084400
     29 C35         -0.4030    -0.0860   -17.3950 c3         1 H15      -0.092100
     30 HN2          2.8880    -0.0290     1.1670 hn         1 H15       0.316500
     31 H2           0.2500     0.5860     2.3310 h1         1 H15       0.101700
     32 H1           0.1750    -1.4300     3.7060 h1         1 H15       0.035700
     33 H1A          0.2440    -1.8970     2.0010 h1         1 H15       0.035700
     34 HO1          1.7590    -3.0500     3.3540 ho         1 H15       0.403000
     35 H3           2.9750     0.0780     3.5770 hc         1 H15       0.070200
     36 H3A          1.5260     0.5290     4.4860 hc         1 H15       0.070200
     37 H4           2.7190     2.1700     2.2220 h1         1 H15       0.037700
     38 H6           4.9490     2.4870     2.9270 ha         1 H15       0.135000
     39 H7           6.5240     3.4180     4.5800 ha         1 H15       0.130500
     40 H8           5.7130     4.1030     6.8070 ha         1 H15       0.129000
     41 H9           3.3260     3.8620     7.3760 ha         1 H15       0.130500
     42 H10          1.7500     2.9340     5.7210 ha         1 H15       0.135000
     43 HO4          1.1310     3.5850     2.7390 ho         1 H15       0.407000
     44 H22          2.5890     0.8780    -1.3670 hc         1 H15       0.058700
     45 H22A         2.5900    -0.8910    -1.3580 hc         1 H15       0.058700
     46 H23          0.3500    -0.8970    -2.4060 hc         1 H15       0.058700
     47 H23A         0.3500     0.8720    -2.4150 hc         1 H15       0.058700
     48 H24          2.3610    -0.9040    -3.8460 hc         1 H15       0.038200
     49 H24A         2.3610     0.8650    -3.8540 hc         1 H15       0.038200
     50 H25          0.1200     0.8610    -4.9030 hc         1 H15       0.043700
     51 H25A         0.1200    -0.9080    -4.8940 hc         1 H15       0.043700
     52 H26          2.1310    -0.9150    -6.3340 hc         1 H15       0.040200
     53 H26A         2.1310     0.8540    -6.3430 hc         1 H15       0.040200
     54 H27         -0.1080    -0.9210    -7.3810 hc         1 H15       0.041700
     55 H27A        -0.1080     0.8480    -7.3900 hc         1 H15       0.041700
     56 H28          1.9020     0.8410    -8.8300 hc         1 H15       0.040700
     57 H28A         1.9010    -0.9280    -8.8210 hc         1 H15       0.040700
     58 H29         -0.3370     0.8370    -9.8790 hc         1 H15       0.041200
     59 H29A        -0.3390    -0.9320    -9.8700 hc         1 H15       0.041200
     60 H30          1.6730     0.8280   -11.3180 hc         1 H15       0.040700
     61 H30A         1.6720    -0.9410   -11.3090 hc         1 H15       0.040700
     62 H31         -0.5670    -0.9450   -12.3580 hc         1 H15       0.040700
     63 H31A        -0.5660     0.8240   -12.3660 hc         1 H15       0.040700
     64 H32          1.4440     0.8160   -13.8060 hc         1 H15       0.040700
     65 H32A         1.4430    -0.9530   -13.7970 hc         1 H15       0.040700
     66 H33         -0.7970    -0.9570   -14.8460 hc         1 H15       0.040700
     67 H33A        -0.7950     0.8120   -14.8550 hc         1 H15       0.040700
     68 H34          1.2150     0.8040   -16.2950 hc         1 H15       0.039700
     69 H34A         1.2140    -0.9650   -16.2860 hc         1 H15       0.039700
     70 H35          0.1380    -0.0940   -18.3330 hc         1 H15       0.032367
     71 H35A        -1.0230     0.8010   -17.3440 hc         1 H15       0.032367
     72 H35B        -1.0290    -0.9680   -17.3310 hc         1 H15       0.032367
@<TRIPOS>BOND
     1     1     2 2
     2     2     3 1
     3     2    16 1
     4     3     4 1
     5     4     5 1
     6     4     7 1
     7     5     6 1
     8     7     8 1
     9     8     9 1
    10     8    15 1
    11     9    10 ar
    12     9    14 ar
    13    10    11 ar
    14    11    12 ar
    15    12    13 ar
    16    13    14 ar
    17    16    17 1
    18    17    18 1
    19    18    19 1
    20    19    20 1
    21    20    21 1
    22    21    22 1
    23    22    23 1
    24    23    24 1
    25    24    25 1
    26    25    26 1
    27    26    27 1
    28    27    28 1
    29    28    29 1
    30     3    30 1
    31     4    31 1
    32     5    32 1
    33     5    33 1
    34     6    34 1
    35     7    35 1
    36     7    36 1
    37     8    37 1
    38    10    38 1
    39    11    39 1
    40    12    40 1
    41    13    41 1
    42    14    42 1
    43    15    43 1
    44    16    44 1
    45    16    45 1
    46    17    46 1
    47    17    47 1
    48    18    48 1
    49    18    49 1
    50    19    50 1
    51    19    51 1
    52    20    52 1
    53    20    53 1
    54    21    54 1
    55    21    55 1
    56    22    56 1
    57    22    57 1
    58    23    58 1
    59    23    59 1
    60    24    60 1
    61    24    61 1
    62    25    62 1
    63    25    63 1
    64    26    64 1
    65    26    65 1
    66    27    66 1
    67    27    67 1
    68    28    68 1
    69    28    69 1
    70    29    70 1
    71    29    71 1
    72    29    72 1
@<TRIPOS>SUBSTRUCTURE
     1 H15         1 TEMP              0 ****  ****    0 ROOT
