@<TRIPOS>MOLECULE
H15
   72    72     1     0     0
SMALL
bcc


@<TRIPOS>ATOM
      1 O21          0.0000     0.0000     0.0000 o          1 H15      -0.653100
      2 C21          1.2130     0.0000     0.0000 c          1 H15       0.570100
      3 N2           1.8870     0.0000     1.1670 ns         1 H15      -0.190900
      4 C2           1.1550     0.0000     2.4360 c3         1 H15       0.012700
      5 C1           0.7910    -1.4370     2.8150 c3         1 H15       0.202400
      6 O1           1.9850    -2.1800     3.0680 oh         1 H15      -0.603800
      7 C3           2.0320     0.6090     3.5310 c3         1 H15      -0.042400
      8 C4           2.2930     2.0840     3.2140 c3         1 H15       0.246400
      9 C5           3.2550     2.6520     4.2250 ca         1 H15      -0.140300
     10 C6           4.5920     2.7890     3.9050 ca         1 H15      -0.082000
     11 C7           5.4760     3.3110     4.8320 ca         1 H15      -0.104000
     12 C8           5.0210     3.6960     6.0790 ca         1 H15      -0.096000
     13 C9           3.6830     3.5590     6.4000 ca         1 H15      -0.104000
     14 C10          2.7990     3.0420     5.4710 ca         1 H15      -0.082000
     15 O4           1.0620     2.8080     3.2690 oh         1 H15      -0.583800
     16 C22          1.9670    -0.0060    -1.3050 c3         1 H15      -0.097400
     17 C23          0.9730    -0.0120    -2.4670 c3         1 H15      -0.015400
     18 C24          1.7380    -0.0190    -3.7920 c3         1 H15      -0.032400
     19 C25          0.7430    -0.0240    -4.9560 c3         1 H15      -0.027400
     20 C26          1.5080    -0.0310    -6.2810 c3         1 H15      -0.029400
     21 C27          0.5140    -0.0370    -7.4430 c3         1 H15      -0.029400
     22 C28          1.2790    -0.0430    -8.7680 c3         1 H15      -0.029400
     23 C29          0.2850    -0.0490    -9.9320 c3         1 H15      -0.029400
     24 C30          1.0500    -0.0560   -11.2570 c3         1 H15      -0.029400
     25 C31          0.0560    -0.0610   -12.4190 c3         1 H15      -0.029400
     26 C32          0.8200    -0.0680   -13.7440 c3         1 H15      -0.029400
     27 C33         -0.1730    -0.0730   -14.9080 c3         1 H15      -0.030400
     28 C34          0.5920    -0.0800   -16.2330 c3         1 H15      -0.028400
     29 C35         -0.4030    -0.0860   -17.3950 c3         1 H15       0.005900
     30 HN2          2.8880    -0.0290     1.1670 hn         1 H15       0.177500
     31 H2           0.2500     0.5860     2.3310 h1         1 H15       0.075700
     32 H1           0.1750    -1.4300     3.7060 h1         1 H15       0.001700
     33 H1A          0.2440    -1.8970     2.0010 h1         1 H15       0.001700
     34 HO1          1.7590    -3.0500     3.3540 ho         1 H15       0.394000
     35 H3           2.9750     0.0780     3.5770 hc         1 H15       0.040700
     36 H3A          1.5260     0.5290     4.4860 hc         1 H15       0.040700
     37 H4           2.7190     2.1700     2.2220 h1         1 H15       0.002700
     38 H6           4.9490     2.4870     2.9270 ha         1 H15       0.109500
     39 H7           6.5240     3.4180     4.5800 ha         1 H15       0.103500
     40 H8           5.7130     4.1030     6.8070 ha         1 H15       0.102000
     41 H9           3.3260     3.8620     7.3760 ha         1 H15       0.103500
     42 H10          1.7500     2.9340     5.7210 ha         1 H15       0.109500
     43 HO4          1.1310     3.5850     2.7390 ho         1 H15       0.394000
     44 H22          2.5890     0.8780    -1.3670 hc         1 H15       0.026200
     45 H22A         2.5900    -0.8910    -1.3580 hc         1 H15       0.026200
     46 H23          0.3500    -0.8970    -2.4060 hc         1 H15       0.030200
     47 H23A         0.3500     0.8720    -2.4150 hc         1 H15       0.030200
     48 H24          2.3610    -0.9040    -3.8460 hc         1 H15       0.011200
     49 H24A         2.3610     0.8650    -3.8540 hc         1 H15       0.011200
     50 H25          0.1200     0.8610    -4.9030 hc         1 H15       0.016700
     51 H25A         0.1200    -0.9080    -4.8940 hc         1 H15       0.016700
     52 H26          2.1310    -0.9150    -6.3340 hc         1 H15       0.013700
     53 H26A         2.1310     0.8540    -6.3430 hc         1 H15       0.013700
     54 H27         -0.1080    -0.9210    -7.3810 hc         1 H15       0.015700
     55 H27A        -0.1080     0.8480    -7.3900 hc         1 H15       0.015700
     56 H28          1.9020     0.8410    -8.8300 hc         1 H15       0.014200
     57 H28A         1.9010    -0.9280    -8.8210 hc         1 H15       0.014200
     58 H29         -0.3370     0.8370    -9.8790 hc         1 H15       0.014700
     59 H29A        -0.3390    -0.9320    -9.8700 hc         1 H15       0.014700
     60 H30          1.6730     0.8280   -11.3180 hc         1 H15       0.014700
     61 H30A         1.6720    -0.9410   -11.3090 hc         1 H15       0.014700
     62 H31         -0.5670    -0.9450   -12.3580 hc         1 H15       0.014700
     63 H31A        -0.5660     0.8240   -12.3660 hc         1 H15       0.014700
     64 H32          1.4440     0.8160   -13.8060 hc         1 H15       0.014700
     65 H32A         1.4430    -0.9530   -13.7970 hc         1 H15       0.014700
     66 H33         -0.7970    -0.9570   -14.8460 hc         1 H15       0.014700
     67 H33A        -0.7950     0.8120   -14.8550 hc         1 H15       0.014700
     68 H34          1.2150     0.8040   -16.2950 hc         1 H15       0.011700
     69 H34A         1.2140    -0.9650   -16.2860 hc         1 H15       0.011700
     70 H35          0.1380    -0.0940   -18.3330 hc         1 H15       0.000033
     71 H35A        -1.0230     0.8010   -17.3440 hc         1 H15       0.000033
     72 H35B        -1.0290    -0.9680   -17.3310 hc         1 H15       0.000033
@<TRIPOS>BOND
     1     1     2 2   
     2     2     3 1   
     3     2    16 1   
     4     3     4 1   
     5     3    30 1   
     6     4     5 1   
     7     4     7 1   
     8     4    31 1   
     9     5     6 1   
    10     5    32 1   
    11     5    33 1   
    12     6    34 1   
    13     7     8 1   
    14     7    35 1   
    15     7    36 1   
    16     8     9 1   
    17     8    15 1   
    18     8    37 1   
    19     9    10 ar  
    20     9    14 ar  
    21    10    11 ar  
    22    10    38 1   
    23    11    12 ar  
    24    11    39 1   
    25    12    13 ar  
    26    12    40 1   
    27    13    14 ar  
    28    13    41 1   
    29    14    42 1   
    30    15    43 1   
    31    16    17 1   
    32    16    44 1   
    33    16    45 1   
    34    17    18 1   
    35    17    46 1   
    36    17    47 1   
    37    18    19 1   
    38    18    48 1   
    39    18    49 1   
    40    19    20 1   
    41    19    50 1   
    42    19    51 1   
    43    20    21 1   
    44    20    52 1   
    45    20    53 1   
    46    21    22 1   
    47    21    54 1   
    48    21    55 1   
    49    22    23 1   
    50    22    56 1   
    51    22    57 1   
    52    23    24 1   
    53    23    58 1   
    54    23    59 1   
    55    24    25 1   
    56    24    60 1   
    57    24    61 1   
    58    25    26 1   
    59    25    62 1   
    60    25    63 1   
    61    26    27 1   
    62    26    64 1   
    63    26    65 1   
    64    27    28 1   
    65    27    66 1   
    66    27    67 1   
    67    28    29 1   
    68    28    68 1   
    69    28    69 1   
    70    29    70 1   
    71    29    71 1   
    72    29    72 1   
@<TRIPOS>SUBSTRUCTURE
     1 H15         1 TEMP              0 ****  ****    0 ROOT
