@<TRIPOS>MOLECULE
H16
   44    46     1     0     0
SMALL
bcc


@<TRIPOS>ATOM
      1 CA          0.3070    0.1170    0.1110 c3        1 H16      0.003400
      2 CB          1.7470   -0.3410    0.2160 c3        1 H16     -0.069400
      3 CC          2.1740   -0.4580    1.6670 c3        1 H16     -0.076400
      4 CD          1.2500   -1.3770    2.4390 c3        1 H16     -0.079400
      5 CE         -0.1910   -0.9240    2.3270 c3        1 H16     -0.076400
      6 CF         -0.6220   -0.8020    0.8780 c3        1 H16     -0.069400
      7 N1          0.4980    4.2250   -3.2370 n         1 H16     -0.441100
      8 C6          1.0950    3.1310   -3.8700 c         1 H16      0.690700
      9 O2          1.8180    3.3530   -4.8610 o         1 H16     -0.625500
     10 C5          0.8480    1.7890   -3.2960 cc        1 H16     -0.112400
     11 C4          0.0400    1.6330   -2.2110 cd        1 H16      0.080400
     12 S4         -0.2350    0.0560   -1.5960 ss        1 H16     -0.247700
     13 C2         -0.3640    4.0770   -2.1600 ca        1 H16      0.092600
     14 C3         -0.6350    2.7810   -1.6360 ca        1 H16     -0.106800
     15 C7         -1.5790    2.6520   -0.6030 ca        1 H16     -0.079000
     16 C8         -2.1920    3.7730   -0.0600 ca        1 H16     -0.020600
     17 C9         -1.8910    5.0580   -0.5420 ca        1 H16     -0.076000
     18 C10        -0.9950    5.2100   -1.5820 ca        1 H16     -0.177000
     19 CL         -3.3230    3.5960    1.1960 cl        1 H16     -0.088400
     20 C12         0.8620    0.2470   -5.2480 c3        1 H16     -0.074400
     21 C13         1.5990   -0.8850   -5.9160 c3        1 H16     -0.091100
     22 HA          0.2210    1.1630    0.5050 h1        1 H16      0.079700
     23 HB1         2.4150    0.3880   -0.3140 hc        1 H16      0.052950
     24 HB2         1.8610   -1.3360   -0.2900 hc        1 H16      0.052950
     25 HC1         3.2230   -0.8520    1.7120 hc        1 H16      0.043950
     26 HC2         2.1740    0.5580    2.1400 hc        1 H16      0.043950
     27 HD1         1.3460   -2.4220    2.0440 hc        1 H16      0.043200
     28 HD2         1.5540   -1.3940    3.5180 hc        1 H16      0.043200
     29 HE1        -0.3130    0.0670    2.8370 hc        1 H16      0.043950
     30 HE2        -0.8580   -1.6580    2.8500 hc        1 H16      0.043950
     31 HF1        -0.6220   -1.8180    0.4000 hc        1 H16      0.052950
     32 HF2        -1.6710   -0.4060    0.8320 hc        1 H16      0.052950
     33 HN1         0.6710    5.1380   -3.5960 hn        1 H16      0.335500
     34 H7         -1.8430    1.6420   -0.2420 ha        1 H16      0.165000
     35 H9         -2.3760    5.9410   -0.0980 ha        1 H16      0.152000
     36 H10        -0.7740    6.2180   -1.9670 ha        1 H16      0.144000
     37 H111        2.6070    1.0100   -4.2220 hc        1 H16      0.070700
     38 H112        1.6370   -0.2060   -3.2690 hc        1 H16      0.070700
     39 H121       -0.1880   -0.0710   -5.0140 hc        1 H16      0.048700
     40 H122        0.8050    1.1270   -5.9420 hc        1 H16      0.048700
     41 H131        1.0730   -1.1850   -6.8540 hc        1 H16      0.034367
     42 H132        2.6400   -0.5780   -6.1780 hc        1 H16      0.034367
     43 H133        1.6540   -1.7740   -5.2420 hc        1 H16      0.034367
     44 C11         1.5630    0.6730   -3.9700 c3        1 H16     -0.047200
@<TRIPOS>BOND
     1    1    2 1   
     2    1    6 1   
     3    1   12 1   
     4    1   22 1   
     5    2    3 1   
     6    2   23 1   
     7    2   24 1   
     8    3    4 1   
     9    3   25 1   
    10    3   26 1   
    11    4    5 1   
    12    4   27 1   
    13    4   28 1   
    14    5    6 1   
    15    5   29 1   
    16    5   30 1   
    17    6   31 1   
    18    6   32 1   
    19    7    8 1   
    20    7   13 1   
    21    7   33 1   
    22    8    9 2   
    23    8   10 1   
    24   10   11 2   
    25   10   44 1   
    26   11   12 1   
    27   11   14 1   
    28   13   14 ar  
    29   13   18 ar  
    30   14   15 ar  
    31   15   16 ar  
    32   15   34 1   
    33   16   17 ar  
    34   16   19 1   
    35   17   18 ar  
    36   17   35 1   
    37   18   36 1   
    38   20   21 1   
    39   20   39 1   
    40   20   40 1   
    41   20   44 1   
    42   21   41 1   
    43   21   42 1   
    44   21   43 1   
    45   37   44 1   
    46   38   44 1   
@<TRIPOS>SUBSTRUCTURE
     1 H16         1 TEMP              0 ****  ****    0 ROOT
