@<TRIPOS>MOLECULE
H18
   45    45     1     0     0
SMALL
bcc


@<TRIPOS>ATOM
      1 CA         -0.1130   -0.8090   -0.4230 ce        1 H18     -0.196500
      2 CB         -0.2320    0.4820    0.3070 c3        1 H18     -0.012200
      3 CC         -0.1130    0.3170    1.8100 c3        1 H18     -0.073400
      4 CD          1.0570   -0.5720    2.1720 c3        1 H18     -0.075400
      5 CE          0.9120   -1.9470    1.5490 c3        1 H18     -0.069200
      6 CF          0.4130   -1.8990    0.1560 c2        1 H18     -0.013200
      7 N1         -5.3100    0.5820   -1.1690 n         1 H18     -0.392700
      8 C6         -4.3140    0.8870   -2.1040 c         1 H18      0.665300
      9 O2         -4.6300    1.6710   -3.0210 o         1 H18     -0.580100
     10 C5         -2.9010    0.4510   -1.9650 ce        1 H18     -0.125200
     11 C4         -2.3350   -0.7590   -1.9550 cf        1 H18     -0.013300
     12 S4         -0.5780   -0.7580   -2.0630 sx        1 H18      0.361800
     13 C2         -5.2550   -0.4860   -0.3580 c1        1 H18     -0.053800
     14 C3         -3.0430   -2.0310   -1.9580 cf        1 H18     -0.091100
     15 C7         -3.2680   -2.7200   -0.8730 c1        1 H18     -0.020800
     16 C8         -3.6490   -3.2510    0.2600 c2        1 H18     -0.027900
     17 C9         -4.8660   -2.7060    0.9710 c3        1 H18      0.068900
     18 C10        -5.1880   -1.4520    0.3510 c1        1 H18     -0.148100
     19 CL         -2.8260   -4.5200    1.0270 cl        1 H18     -0.087400
     20 C12        -1.5850    3.5120   -3.3880 cx        1 H18     -0.142400
     21 C13        -0.9480    4.7230   -2.7720 cx        1 H18     -0.142400
     22 OS         -0.1950   -2.0660   -2.6510 o         1 H18     -0.503200
     23 HA          1.2020    0.6320   -2.9630 ha        1 H18      0.007500
     24 HB1         1.4510    0.0640   -3.2420 ha        1 H18      0.007500
     25 HB2        -1.2210    0.9620    0.0690 hc        1 H18      0.042700
     26 HC1         0.5720    1.1800   -0.0560 hc        1 H18      0.042700
     27 HC2        -1.0600   -0.1300    2.2120 hc        1 H18      0.045700
     28 HD1         0.0150    1.3240    2.2850 hc        1 H18      0.045700
     29 HD2         1.1270   -0.6720    3.2860 hc        1 H18      0.044200
     30 HE1         2.0090   -0.0980    1.8160 hc        1 H18      0.044200
     31 HE2         0.1880   -2.5630    2.1520 hc        1 H18      0.063700
     32 HF1         1.9000   -2.4800    1.5750 hc        1 H18      0.063700
     33 HF2         0.4890   -2.8480   -0.4130 ha        1 H18      0.154000
     34 HN1        -6.2170    0.9750   -1.3380 hn        1 H18      0.337500
     35 H7         -3.3720   -2.4000   -2.9490 ha        1 H18      0.168000
     36 H9         -5.7220   -3.4310    0.8820 hc        1 H18      0.079700
     37 H10        -4.6380   -2.5710    2.0640 hc        1 H18      0.079700
     38 H111       -2.2450    1.3520   -1.9740 ha        1 H18      0.160000
     39 H112       -0.8290    3.0040   -1.3180 hc        1 H18      0.071367
     40 H121        0.4620    2.9700   -2.6110 hc        1 H18      0.071367
     41 H122       -2.6410    3.2740   -3.1540 hc        1 H18      0.071367
     42 H131       -1.3340    3.2490   -4.4310 hc        1 H18      0.071367
     43 H132       -1.5430    5.3520   -2.0870 hc        1 H18      0.071367
     44 H133       -0.2440    5.3240   -3.3740 hc        1 H18      0.071367
     45 C11        -0.5350    3.3500   -2.3260 cx        1 H18     -0.142400
@<TRIPOS>BOND
     1    1    2 1
     2    1    6 2
     3    1   12 1
     4    2    3 1
     5    2   25 1
     6    2   26 1
     7    3    4 1
     8    3   27 1
     9    3   28 1
    10    4    5 1
    11    4   29 1
    12    4   30 1
    13    5    6 1
    14    5   31 1
    15    5   32 1
    16    6   33 1
    17    7    8 1
    18    7   13 1
    19    7   34 1
    20    8    9 2
    21    8   10 1
    22   10   11 2
    23   10   38 1
    24   11   12 1
    25   11   14 1
    26   12   22 2
    27   13   18 3
    28   14   15 2
    29   14   35 1
    30   15   16 2
    31   16   17 1
    32   16   19 1
    33   17   18 1
    34   17   36 1
    35   17   37 1
    36   20   21 1
    37   20   41 1
    38   20   42 1
    39   20   45 1
    40   21   43 1
    41   21   44 1
    42   21   45 1
    43   23   24 1
    44   39   45 1
    45   40   45 1
@<TRIPOS>SUBSTRUCTURE
     1 H18         1 TEMP              0 ****  ****    0 ROOT
