@<TRIPOS>MOLECULE
molecule
   43    46     1     0     0
SMALL
bcc


@<TRIPOS>ATOM
      1 C02          0.0000     0.0000     0.0000 ca         1 H19       0.220600
      2 C03          1.4140     0.0000     0.0000 ca         1 H19      -0.184300
      3 C04          2.1480     0.0000     1.1940 ca         1 H19      -0.094000
      4 C05          3.5100     0.0050     1.1460 ca         1 H19      -0.122000
      5 C06          4.1800     0.0100    -0.0760 ca         1 H19       0.046400
      6 C08          3.4960     0.0100    -1.2540 ca         1 H19      -0.169300
      7 C09          2.0910     0.0020    -1.2440 ca         1 H19       0.439600
      8 C11          0.0690    -0.0240    -2.4020 ca         1 H19       0.455600
      9 C12         -0.6540    -0.0030    -1.2250 ca         1 H19      -0.229600
     10 C13         -2.1660     0.0510    -1.2220 c3         1 H19       0.022800
     11 C14         -2.6870    -0.6520    -2.4810 c3         1 H19      -0.069400
     12 C15         -2.0920     0.0680    -3.6890 c3         1 H19      -0.071700
     13 C16         -0.5930    -0.0990    -3.7540 c3         1 H19      -0.117700
     14 C17         -2.5660     1.5030    -3.7650 c3         1 H19      -0.023200
     15 C18         -2.7040     2.1330    -2.4140 c2         1 H19      -0.162400
     16 C19         -3.0460     3.6000    -2.3570 c3         1 H19      -0.064200
     17 C20         -1.7640     4.4270    -2.4750 c3         1 H19       0.091800
     18 C22         -2.5490     1.5100    -1.2890 c2         1 H19      -0.097200
     19 N01         -0.7120    -0.0040     1.1890 nv         1 H19      -0.986200
     20 N10          1.3920    -0.0080    -2.3800 nb         1 H19      -0.694000
     21 N21         -2.0980     5.8570    -2.4200 nz         1 H19      -0.812600
     22 Cl           5.9170     0.0180    -0.0970 cl         1 H19      -0.085400
     23 H1           1.6360    -0.0040     2.1480 ha         1 H19       0.147000
     24 H2           4.0780     0.0050     2.0690 ha         1 H19       0.153000
     25 H3           4.0340     0.0150    -2.1940 ha         1 H19       0.167000
     26 H4          -2.5660    -0.4120    -0.3280 hc         1 H19       0.087700
     27 H5          -3.7680    -0.5940    -2.5130 hc         1 H19       0.063200
     28 H6          -2.3740    -1.6890    -2.4790 hc         1 H19       0.063200
     29 H7          -2.4900    -0.4290    -4.5660 hc         1 H19       0.062700
     30 H8          -0.3710    -1.0630    -4.1950 hc         1 H19       0.071200
     31 H9          -0.1840     0.6810    -4.3840 hc         1 H19       0.071200
     32 H10         -1.8540     2.0760    -4.3460 hc         1 H19       0.049700
     33 H11         -3.5290     1.5270    -4.2600 hc         1 H19       0.049700
     34 H13         -3.7110     3.8470    -3.1750 hc         1 H19       0.064700
     35 H14         -3.5330     3.8210    -1.4150 hc         1 H19       0.064700
     36 H15         -1.0980     4.1810    -1.6570 hx         1 H19       0.116200
     37 H16         -1.2760     4.2060    -3.4170 hx         1 H19       0.116200
     38 H17         -2.7010     2.0540    -0.3650 ha         1 H19       0.117000
     39 H19         -0.9810    -0.8730     1.6070 hn         1 H19       0.437800
     40 H20         -0.9200     0.8590     1.6510 hn         1 H19       0.437800
     41 H21         -2.6880     6.0910    -3.1940 hn         1 H19       0.455467
     42 H22         -1.2570     6.3980    -2.4660 hn         1 H19       0.455467
     43 H23         -2.5760     6.0550    -1.5640 hn         1 H19       0.455467
@<TRIPOS>BOND
     1    11    12 1
     2    11    10 1
     3    12    13 1
     4    12    14 1
     5    10    18 1
     6    10     9 1
     7    13     8 1
     8    14    15 1
     9    18    15 2
    10     9     8 ar
    11     9     1 ar
    12    17    21 1
    13    17    16 1
    14     8    20 ar
    15    15    16 1
    16    19     1 1
    17     1     2 ar
    18    20     7 ar
    19     2     7 ar
    20     2     3 ar
    21     7     6 ar
    22     3     4 ar
    23     6     5 ar
    24     4     5 ar
    25     5    22 1
    26     3    23 1
    27     4    24 1
    28     6    25 1
    29    10    26 1
    30    11    27 1
    31    11    28 1
    32    12    29 1
    33    13    30 1
    34    13    31 1
    35    14    32 1
    36    14    33 1
    37    16    34 1
    38    16    35 1
    39    17    36 1
    40    17    37 1
    41    18    38 1
    42    19    39 1
    43    19    40 1
    44    21    41 1
    45    21    42 1
    46    21    43 1
@<TRIPOS>SUBSTRUCTURE
     1 H19         1 TEMP              0 ****  ****    0 ROOT
