@<TRIPOS>MOLECULE
H19
   43    46     1     0     0
SMALL
bcc


@<TRIPOS>ATOM
      1 C02          0.0000     0.0000     0.0000 ca         1 H19       0.081600
      2 C03          1.4140     0.0000     0.0000 ca         1 H19      -0.174300
      3 C04          2.1480     0.0000     1.1940 ca         1 H19      -0.072000
      4 C05          3.5100     0.0050     1.1460 ca         1 H19      -0.090000
      5 C06          4.1800     0.0100    -0.0760 ca         1 H19      -0.025600
      6 C08          3.4960     0.0100    -1.2540 ca         1 H19      -0.148300
      7 C09          2.0910     0.0020    -1.2440 ca         1 H19       0.391600
      8 C11          0.0690    -0.0240    -2.4020 ca         1 H19       0.396600
      9 C12         -0.6540    -0.0030    -1.2250 ca         1 H19      -0.222600
     10 C13         -2.1660     0.0510    -1.2220 c3         1 H19       0.064800
     11 C14         -2.6870    -0.6520    -2.4810 c3         1 H19      -0.013400
     12 C15         -2.0920     0.0680    -3.6890 c3         1 H19      -0.052700
     13 C16         -0.5930    -0.0990    -3.7540 c3         1 H19      -0.059700
     14 C17         -2.5660     1.5030    -3.7650 c3         1 H19       0.051800
     15 C18         -2.7040     2.1330    -2.4140 c2         1 H19      -0.182400
     16 C19         -3.0460     3.6000    -2.3570 c3         1 H19       0.024800
     17 C20         -1.7640     4.4270    -2.4750 c3         1 H19      -0.057200
     18 C22         -2.5490     1.5100    -1.2890 c2         1 H19      -0.076200
     19 N01         -0.7120    -0.0040     1.1890 nv         1 H19      -0.550200
     20 N10          1.3920    -0.0080    -2.3800 nb         1 H19      -0.572000
     21 N21         -2.0980     5.8570    -2.4200 nz         1 H19       0.084400
     22 Cl           5.9170     0.0180    -0.0970 cl         1 H19      -0.000400
     23 H1           1.6360    -0.0040     2.1480 ha         1 H19       0.115000
     24 H2           4.0780     0.0050     2.0690 ha         1 H19       0.121000
     25 H3           4.0340     0.0150    -2.1940 ha         1 H19       0.133000
     26 H4          -2.5660    -0.4120    -0.3280 hc         1 H19       0.054700
     27 H5          -3.7680    -0.5940    -2.5130 hc         1 H19       0.032200
     28 H6          -2.3740    -1.6890    -2.4790 hc         1 H19       0.032200
     29 H7          -2.4900    -0.4290    -4.5660 hc         1 H19       0.033700
     30 H8          -0.3710    -1.0630    -4.1950 hc         1 H19       0.036200
     31 H9          -0.1840     0.6810    -4.3840 hc         1 H19       0.036200
     32 H10         -1.8540     2.0760    -4.3460 hc         1 H19       0.019700
     33 H11         -3.5290     1.5270    -4.2600 hc         1 H19       0.019700
     34 H13         -3.7110     3.8470    -3.1750 hc         1 H19       0.032200
     35 H14         -3.5330     3.8210    -1.4150 hc         1 H19       0.032200
     36 H15         -1.0980     4.1810    -1.6570 hx         1 H19       0.089700
     37 H16         -1.2760     4.2060    -3.4170 hx         1 H19       0.089700
     38 H17         -2.7010     2.0540    -0.3650 ha         1 H19       0.094000
     39 H19         -0.9810    -0.8730     1.6070 hn         1 H19       0.280800
     40 H20         -0.9200     0.8590     1.6510 hn         1 H19       0.280800
     41 H21         -2.6880     6.0910    -3.1940 hn         1 H19       0.222133
     42 H22         -1.2570     6.3980    -2.4660 hn         1 H19       0.222133
     43 H23         -2.5760     6.0550    -1.5640 hn         1 H19       0.222133
@<TRIPOS>BOND
     1     1     2 ar  
     2     1     9 ar  
     3     1    19 1   
     4     2     3 ar  
     5     2     7 ar  
     6     3     4 ar  
     7     3    23 1   
     8     4     5 ar  
     9     4    24 1   
    10     5     6 ar  
    11     5    22 1   
    12     6     7 ar  
    13     6    25 1   
    14     7    20 ar  
    15     8     9 ar  
    16     8    13 1   
    17     8    20 ar  
    18     9    10 1   
    19    10    11 1   
    20    10    18 1   
    21    10    26 1   
    22    11    12 1   
    23    11    27 1   
    24    11    28 1   
    25    12    13 1   
    26    12    14 1   
    27    12    29 1   
    28    13    30 1   
    29    13    31 1   
    30    14    15 1   
    31    14    32 1   
    32    14    33 1   
    33    15    16 1   
    34    15    18 2   
    35    16    17 1   
    36    16    34 1   
    37    16    35 1   
    38    17    21 1   
    39    17    36 1   
    40    17    37 1   
    41    18    38 1   
    42    19    39 1   
    43    19    40 1   
    44    21    41 1   
    45    21    42 1   
    46    21    43 1   
@<TRIPOS>SUBSTRUCTURE
     1 H19         1 TEMP              0 ****  ****    0 ROOT
