@<TRIPOS>MOLECULE
molecule
   56    59     1     0     0
SMALL
bcc


@<TRIPOS>ATOM
      1 C01          0.0000     0.0000     0.0000 c3         1 H1B      -0.112100
      2 C05          1.5310     0.0000     0.0000 c3         1 H1B       0.081000
      3 N08          2.0180     0.0000     1.3810 n          1 H1B      -0.321000
      4 C09          2.2370    -1.1920     1.9990 cc         1 H1B       0.070600
      5 C11          2.6890    -1.2530     3.2780 cd         1 H1B      -0.114400
      6 C12          2.9180    -2.5680     3.9240 ca         1 H1B      -0.073800
      7 C13          4.2070    -2.9520     4.2920 ca         1 H1B      -0.094000
      8 C15          4.4150    -4.1770     4.8930 ca         1 H1B      -0.126000
      9 C17          3.3470    -5.0230     5.1310 ca         1 H1B      -0.067000
     10 C19          2.0660    -4.6470     4.7680 ca         1 H1B      -0.174300
     11 C20          1.8460    -3.4220     4.1730 ca         1 H1B      -0.067000
     12 C22          0.9080    -5.5750     5.0320 c3         1 H1B       0.675200
     13 F23          1.3750    -6.7430     5.6440 f          1 H1B      -0.217633
     14 F24         -0.0140    -4.9440     5.8730 f          1 H1B      -0.217633
     15 F25          0.2870    -5.9000     3.8200 f          1 H1B      -0.217633
     16 C26          2.9510    -0.0130     4.0170 cd         1 H1B       0.098100
     17 S27          3.5280     0.2690     5.6530 ss         1 H1B       0.076200
     18 C28          3.4490     2.0090     5.4320 cd         1 H1B      -0.218000
     19 C29          3.0150     2.3060     4.2010 cc         1 H1B      -0.042000
     20 C31          2.7250     1.2100     3.3820 cc         1 H1B      -0.215600
     21 C32          2.2390     1.1750     1.9900 c          1 H1B       0.721100
     22 O33          2.0340     2.2170     1.3930 o          1 H1B      -0.620500
     23 C34          3.8100     3.0020     6.4560 cf         1 H1B       0.555800
     24 N35          3.7100     4.3490     6.1760 nz         1 H1B      -0.790600
     25 N37          4.2250     2.6080     7.6310 n2         1 H1B      -0.513900
     26 C39          4.4530     3.5890     8.6940 c3         1 H1B       0.085500
     27 C41          3.6720     3.1740     9.9370 c3         1 H1B      -0.055400
     28 C44          3.6880     4.3050    10.9680 c3         1 H1B      -0.213100
     29 S47          5.3990     4.5890    11.5070 s6         1 H1B       1.105000
     30 O48          5.8980     3.3940    12.0890 o          1 H1B      -0.578300
     31 O49          5.4460     5.7980    12.2540 o          1 H1B      -0.578300
     32 C50          6.2350     4.8540     9.9150 c3         1 H1B      -0.213100
     33 C53          5.9460     3.6640     8.9980 c3         1 H1B      -0.055400
     34 H011        -0.3610     0.4700    -0.9070 hc         1 H1B       0.054033
     35 H012        -0.3610    -1.0200     0.0460 hc         1 H1B       0.054033
     36 H013        -0.3610     0.5500     0.8610 hc         1 H1B       0.054033
     37 H051         1.8920    -0.8850    -0.5110 h1         1 H1B       0.080200
     38 H052         1.8920     0.8850    -0.5110 h1         1 H1B       0.080200
     39 H09          2.0480    -2.1120     1.4600 h4         1 H1B       0.184000
     40 H13          5.0440    -2.2900     4.1060 ha         1 H1B       0.139000
     41 H20          0.8420    -3.1290     3.8900 ha         1 H1B       0.150000
     42 H15          5.4160    -4.4760     5.1790 ha         1 H1B       0.151000
     43 H17          3.5150    -5.9850     5.6000 ha         1 H1B       0.163000
     44 H29          2.8940     3.3280     3.8630 ha         1 H1B       0.138000
     45 H351         3.5700     4.4770     5.1940 hn         1 H1B       0.467467
     46 H352         4.5530     4.8110     6.4550 hn         1 H1B       0.467467
     47 H39          4.1080     4.5620     8.3670 h1         1 H1B      -0.003300
     48 H411         2.6480     2.9560     9.6610 hc         1 H1B       0.083700
     49 H412         4.1290     2.2910    10.3680 hc         1 H1B       0.083700
     50 H531         6.2580     2.7500     9.4880 hc         1 H1B       0.083700
     51 H532         6.4940     3.7860     8.0710 hc         1 H1B       0.083700
     52 H441         3.2960     5.2090    10.5190 h1         1 H1B       0.111200
     53 H442         3.0820     4.0250    11.8210 h1         1 H1B       0.111200
     54 H501         7.3030     4.9350    10.0770 h1         1 H1B       0.111200
     55 H502         5.8620     5.7620     9.4580 h1         1 H1B       0.111200
     56 H353         2.9340     4.7370     6.6750 hn         1 H1B       0.467467
@<TRIPOS>BOND
     1     1     2 1
     2     2     3 1
     3     3     4 1
     4     3    21 1
     5     4     5 2
     6     5     6 1
     7     5    16 1
     8     6     7 ar
     9     6    11 ar
    10     7     8 ar
    11     8     9 ar
    12     9    10 ar
    13    10    11 ar
    14    10    12 1
    15    12    13 1
    16    12    14 1
    17    12    15 1
    18    16    17 1
    19    16    20 2
    20    17    18 1
    21    18    19 2
    22    18    23 1
    23    19    20 1
    24    20    21 1
    25    21    22 2
    26    23    24 1
    27    23    25 2
    28    25    26 1
    29    26    27 1
    30    26    33 1
    31    27    28 1
    32    28    29 1
    33    29    30 2
    34    29    31 2
    35    29    32 1
    36    32    33 1
    37     1    34 1
    38     1    35 1
    39     1    36 1
    40     2    37 1
    41     2    38 1
    42     4    39 1
    43     7    40 1
    44    11    41 1
    45     8    42 1
    46     9    43 1
    47    19    44 1
    48    24    45 1
    49    24    46 1
    50    26    47 1
    51    27    48 1
    52    27    49 1
    53    33    50 1
    54    33    51 1
    55    28    52 1
    56    28    53 1
    57    32    54 1
    58    32    55 1
    59    56    24 1
@<TRIPOS>SUBSTRUCTURE
     1 H1B         1 TEMP              0 ****  ****    0 ROOT
