@<TRIPOS>MOLECULE
molecule
   33    32     1     0     0
SMALL
bcc


@<TRIPOS>ATOM
      1 OXT          0.0000     0.0000     0.0000 o          1 H1D      -0.771300
      2 C            1.2080     0.0000     0.0000 c          1 H1D       0.868600
      3 O            1.8790     0.0010    -1.1620 o          1 H1D      -0.771300
      4 CA           1.9610     0.0000     1.3050 c3         1 H1D      -0.017500
      5 N            1.0780     0.4740     2.3800 nz         1 H1D      -0.792600
      6 CB           2.4330    -1.4210     1.6220 c3         1 H1D      -0.076400
      7 CG           3.3030    -1.4010     2.8810 c3         1 H1D      -0.009300
      8 SD           3.8630    -3.0850     3.2560 ss         1 H1D      -0.316200
      9 C5           4.8420    -2.7660     4.7490 c3         1 H1D      -0.024300
     10 C4           5.4320    -4.0810     5.2630 c3         1 H1D       0.169100
     11 O4           6.3590    -4.5930     4.3040 oh         1 H1D      -0.617800
     12 C3           6.1530    -3.8330     6.5890 c3         1 H1D       0.090100
     13 O3           5.2240    -3.3210     7.5470 oh         1 H1D      -0.570800
     14 C2           6.7340    -5.1280     7.0940 c          1 H1D       0.639100
     15 O2           6.3220    -5.6160     8.1250 o          1 H1D      -0.557100
     16 N1           7.7120    -5.7450     6.4010 ns         1 H1D      -0.462400
     17 O1           8.2570    -6.9620     6.8760 oh         1 H1D      -0.361100
     18 HA           2.8190     0.6570     1.2270 hx         1 H1D       0.104700
     19 HN1A         1.6320     0.7730     3.1580 hn         1 H1D       0.439800
     20 HN2          0.5290     1.2400     2.0470 hn         1 H1D       0.439800
     21 HB1          3.0120    -1.8030     0.7890 hc         1 H1D       0.098700
     22 HB2          1.5730    -2.0590     1.7870 hc         1 H1D       0.098700
     23 HG1          2.7240    -1.0190     3.7130 h1         1 H1D       0.045700
     24 HG2          4.1620    -0.7620     2.7160 h1         1 H1D       0.045700
     25 H51          5.6450    -2.0780     4.5150 h1         1 H1D       0.073200
     26 H52          4.2060    -2.3330     5.5120 h1         1 H1D       0.073200
     27 H4           4.6350    -4.7990     5.4140 h1         1 H1D       0.076700
     28 HO4          5.8910    -5.0610     3.6320 ho         1 H1D       0.433000
     29 H3           6.9500    -3.1150     6.4380 h1         1 H1D       0.053700
     30 HO3          5.6830    -2.7850     8.1740 ho         1 H1D       0.419000
     31 HN1          8.0840    -5.3190     5.5750 hn         1 H1D       0.338500
     32 HO1          9.1740    -7.0010     6.6600 ho         1 H1D       0.397000
     33 HN3          0.4770    -0.2720     2.6700 hn         1 H1D       0.439800
@<TRIPOS>BOND
     1     1     2 1
     2     2     3 1
     3     2     4 1
     4     4     5 1
     5     4     6 1
     6     4    18 1
     7     5    19 1
     8     5    20 1
     9     6     7 1
    10     6    21 1
    11     6    22 1
    12     7     8 1
    13     7    23 1
    14     7    24 1
    15     8     9 1
    16     9    10 1
    17     9    25 1
    18     9    26 1
    19    10    11 1
    20    10    12 1
    21    10    27 1
    22    11    28 1
    23    12    13 1
    24    12    14 1
    25    12    29 1
    26    13    30 1
    27    14    15 2
    28    14    16 1
    29    16    17 1
    30    16    31 1
    31    17    32 1
    32    33     5 1
@<TRIPOS>SUBSTRUCTURE
     1 H1D         1 TEMP              0 ****  ****    0 ROOT
