@<TRIPOS>MOLECULE
H1I
   72    75     1     0     0
SMALL
bcc


@<TRIPOS>ATOM
      1 C1         -0.2040   -0.8460    0.3330 ca        1 H1I     -0.122000
      2 C2          1.1950   -0.9290    0.2220 ca        1 H1I     -0.114000
      3 C3          2.0130   -0.6500    1.3050 ca        1 H1I     -0.087000
      4 C4          1.4330   -0.2790    2.5210 ca        1 H1I     -0.110100
      5 C5          0.0050   -0.1950    2.6400 ca        1 H1I      0.097400
      6 C6         -0.8090   -0.4830    1.5240 ca        1 H1I     -0.076000
      7 N7         -0.4560    0.1710    3.9090 nc        1 H1I     -0.557100
      8 C8          0.5960    0.3780    4.7100 cd        1 H1I      0.518100
      9 S9          2.1630    0.1200    3.9890 ss        1 H1I      0.048900
     10 N10         0.4870    0.8720    6.0420 nh        1 H1I     -0.435300
     11 N11         1.2360    0.2640    6.9550 n2        1 H1I     -0.398400
     12 C12         0.9880    0.3840    8.2470 ce        1 H1I      0.258300
     13 C13        -0.1810    1.0800    8.8650 c3        1 H1I     -0.163400
     14 C14         1.9670   -0.2160    9.1410 cc        1 H1I      0.295400
     15 C15         3.1640   -0.8860    8.9200 cd        1 H1I     -0.233300
     16 C16         3.6840   -1.2470   10.2100 cd        1 H1I     -0.172300
     17 C17         2.7800   -0.7810   11.1560 cc        1 H1I      0.220200
     18 O18         1.7040   -0.1370   10.5140 os        1 H1I     -0.366800
     19 C19         2.7380   -0.8310   12.5910 ca        1 H1I     -0.096500
     20 C20         3.7660   -1.4760   13.3060 ca        1 H1I      0.014000
     21 C21         3.7250   -1.5300   14.7020 ca        1 H1I     -0.139000
     22 C22         2.6780   -0.9510   15.3950 ca        1 H1I      0.002000
     23 C23         1.6230   -0.2910   14.7110 ca        1 H1I     -0.591500
     24 C24         1.6840   -0.2470   13.2980 ca        1 H1I      0.032000
     25 S25         0.4210    0.3300   15.4930 s4        1 H1I      1.667300
     26 O25        -0.6530    0.7710   14.7870 o         1 H1I     -0.436400
     27 O26         0.3690    0.1230   16.8360 o         1 H1I     -0.436400
     28 N26         1.3560    2.4540   15.7660 n         1 H1I     -0.736000
     29 C27         0.9300    3.4120   14.7610 c         1 H1I      0.609100
     30 O27         1.6630    3.5580   13.7820 o         1 H1I     -0.486100
     31 C28        -0.4020    4.0820   14.9710 c3        1 H1I     -0.154400
     32 C29        -0.6000    5.2190   13.9890 c3        1 H1I     -0.077400
     33 C30        -1.9610    5.8530   14.1770 c3        1 H1I     -0.081400
     34 C31        -2.1690    6.9820   13.1890 c3        1 H1I     -0.076400
     35 C32        -3.5320    7.6230   13.3760 c3        1 H1I     -0.033100
     36 C33        -3.7430    8.7440   12.4200 ca        1 H1I     -0.089300
     37 C34        -4.6090    8.5970   11.3320 ca        1 H1I     -0.127000
     38 C35        -4.8110    9.6550   10.4460 ca        1 H1I     -0.125000
     39 C36        -4.1490   10.8670   10.6400 ca        1 H1I     -0.125000
     40 C37        -3.2850   11.0200   11.7240 ca        1 H1I     -0.125000
     41 C38        -3.0830    9.9640   12.6110 ca        1 H1I     -0.127000
     42 H1         -0.8260   -1.0730   -0.5470 ha        1 H1I      0.143000
     43 H2          1.6430   -1.2200   -0.7410 ha        1 H1I      0.143000
     44 H6         -1.9030   -0.4170    1.6100 ha        1 H1I      0.155000
     45 H3          3.1070   -0.7150    1.2120 ha        1 H1I      0.143000
     46 H10        -0.4590    1.1330    6.2970 hn        1 H1I      0.420800
     47 H131       -1.1420    0.6810    8.4510 hc        1 H1I      0.060700
     48 H132       -0.1310    2.1780    8.6550 hc        1 H1I      0.060700
     49 H133       -0.1990    0.9370    9.9730 hc        1 H1I      0.060700
     50 H15         3.6250   -1.0980    7.9560 ha        1 H1I      0.194000
     51 H16         4.6140   -1.7840   10.3900 ha        1 H1I      0.170000
     52 H20         4.6060   -1.9400   12.7580 ha        1 H1I      0.175000
     53 H24         0.8760    0.2590   12.7300 ha        1 H1I      0.186000
     54 H21         4.5340   -2.0420   15.2520 ha        1 H1I      0.179000
     55 H22         2.6490   -1.0100   16.5000 ha        1 H1I      0.171000
     56 H26         2.3550    2.3210   15.7360 hn        1 H1I      0.306000
     57 H281       -0.4790    4.4710   16.0220 hc        1 H1I      0.090200
     58 H282       -1.2060    3.3060   14.8270 hc        1 H1I      0.090200
     59 H291        0.2040    5.9880   14.1340 hc        1 H1I      0.065200
     60 H292       -0.4970    4.8320   12.9400 hc        1 H1I      0.065200
     61 H301       -2.7620    5.0800   14.0380 hc        1 H1I      0.044700
     62 H302       -2.0550    6.2470   15.2230 hc        1 H1I      0.044700
     63 H311       -1.3700    7.7570   13.3240 hc        1 H1I      0.050200
     64 H312       -2.0780    6.5890   12.1420 hc        1 H1I      0.050200
     65 H321       -3.6200    8.0090   14.4270 hc        1 H1I      0.048200
     66 H322       -4.3310    6.8460   13.2400 hc        1 H1I      0.048200
     67 H34        -5.1380    7.6450   11.1760 ha        1 H1I      0.128500
     68 H38        -2.4040   10.0880   13.4680 ha        1 H1I      0.128500
     69 H35        -5.4960    9.5320    9.5940 ha        1 H1I      0.135000
     70 H36        -4.3110   11.7010    9.9410 ha        1 H1I      0.137000
     71 H37        -2.7650   11.9760   11.8820 ha        1 H1I      0.135000
     72 H262        1.0780    2.7420   16.6910 hn        1 H1I      0.306000
@<TRIPOS>BOND
     1    1    2 ar  
     2    1    6 ar  
     3    1   42 1   
     4    2    3 ar  
     5    2   43 1   
     6    3    4 ar  
     7    3   45 1   
     8    4    5 ar  
     9    4    9 1   
    10    5    6 ar  
    11    5    7 1   
    12    6   44 1   
    13    7    8 2   
    14    8    9 1   
    15    8   10 1   
    16   10   11 1   
    17   10   46 1   
    18   11   12 2   
    19   12   13 1   
    20   12   14 1   
    21   13   47 1   
    22   13   48 1   
    23   13   49 1   
    24   14   15 2   
    25   14   18 1   
    26   15   16 1   
    27   15   50 1   
    28   16   17 2   
    29   16   51 1   
    30   17   18 1   
    31   17   19 1   
    32   19   20 ar  
    33   19   24 ar  
    34   20   21 ar  
    35   20   52 1   
    36   21   22 ar  
    37   21   54 1   
    38   22   23 ar  
    39   22   55 1   
    40   23   24 ar  
    41   23   25 1   
    42   24   53 1   
    43   25   26 1   
    44   25   27 1   
    45   28   29 1   
    46   28   56 1   
    47   28   72 1   
    48   29   30 2   
    49   29   31 1   
    50   31   32 1   
    51   31   57 1   
    52   31   58 1   
    53   32   33 1   
    54   32   59 1   
    55   32   60 1   
    56   33   34 1   
    57   33   61 1   
    58   33   62 1   
    59   34   35 1   
    60   34   63 1   
    61   34   64 1   
    62   35   36 1   
    63   35   65 1   
    64   35   66 1   
    65   36   37 ar  
    66   36   41 ar  
    67   37   38 ar  
    68   37   67 1   
    69   38   39 ar  
    70   38   69 1   
    71   39   40 ar  
    72   39   70 1   
    73   40   41 ar  
    74   40   71 1   
    75   41   68 1   
@<TRIPOS>SUBSTRUCTURE
     1 H1I         1 TEMP              0 ****  ****    0 ROOT
