@<TRIPOS>MOLECULE
molecule
   34    35     1     0     0
SMALL
bcc


@<TRIPOS>ATOM
      1 O1           0.0000     0.0000     0.0000 o          1 H1K      -0.580100
      2 C4           1.2150     0.0000     0.0000 c          1 H1K       0.770100
      3 N2           1.8890     0.0000     1.1670 ns         1 H1K      -0.558400
      4 C5           1.1960     0.1050     2.3720 ca         1 H1K       0.448900
      5 C8           1.8950     0.2100     3.5710 ca         1 H1K       0.251900
      6 N4           1.2350     0.3100     4.7110 nb         1 H1K      -0.624000
      7 C7          -0.0880     0.3100     4.7120 ca         1 H1K       0.249900
      8 C6          -0.7840     0.2050     3.5230 ca         1 H1K       0.333900
      9 N3          -0.1300     0.1110     2.3780 nb         1 H1K      -0.644000
     10 N1           1.8890    -0.0050    -1.1680 ns         1 H1K      -0.477100
     11 C3           1.1930     0.1090    -2.3810 ca         1 H1K       0.020600
     12 C2          -0.0520     0.7220    -2.4120 ca         1 H1K      -0.066000
     13 C9           1.7520    -0.3870    -3.5540 ca         1 H1K       0.140100
     14 O2           2.9740    -0.9860    -3.5270 os         1 H1K      -0.337900
     15 C10          3.4860    -1.4720    -4.7700 c3         1 H1K       0.131700
     16 C11          1.0630    -0.2740    -4.7510 ca         1 H1K      -0.290000
     17 C12         -0.1830     0.3350    -4.7770 ca         1 H1K       0.165100
     18 C1          -0.7370     0.8350    -3.6070 ca         1 H1K      -0.018600
     19 Cl          -2.2930     1.6020    -3.6440 cl         1 H1K      -0.086400
     20 O3          -0.8590     0.4480    -5.9510 os         1 H1K      -0.310900
     21 C13         -0.2270    -0.0830    -7.1180 c3         1 H1K       0.127700
     22 H3           2.8850    -0.1030     1.1700 hn         1 H1K       0.327500
     23 H6           2.9780     0.2110     3.5700 h4         1 H1K       0.026100
     24 H5          -0.6270     0.3890     5.6490 h4         1 H1K       0.033100
     25 H4          -1.8670     0.2080     3.5280 h4         1 H1K       0.037100
     26 H2           2.8880    -0.0640    -1.1680 hn         1 H1K       0.326500
     27 H1          -0.4860     1.1130    -1.5000 ha         1 H1K       0.200000
     28 H9           4.4580    -1.9210    -4.6080 h1         1 H1K       0.043033
     29 H7           3.5790    -0.6500    -5.4690 h1         1 H1K       0.043033
     30 H8           2.8080    -2.2140    -5.1740 h1         1 H1K       0.043033
     31 H10          1.4960    -0.6620    -5.6650 ha         1 H1K       0.148000
     32 H12          0.7190     0.4210    -7.2770 h1         1 H1K       0.042033
     33 H11         -0.8680     0.0720    -7.9770 h1         1 H1K       0.042033
     34 H13         -0.0530    -1.1440    -6.9830 h1         1 H1K       0.042033
@<TRIPOS>BOND
     1    19    18 1
     2    12    18 ar
     3    12    11 ar
     4    18    17 ar
     5     1     2 2
     6     2     3 1
     7     2    10 1
     8     3     4 1
     9    10    11 1
    10    20    17 1
    11    20    21 1
    12    11    13 ar
    13    17    16 ar
    14    13    16 ar
    15    13    14 1
    16     4     9 ar
    17     4     5 ar
    18     9     8 ar
    19    14    15 1
    20     5     6 ar
    21     8     7 ar
    22     6     7 ar
    23     3    22 1
    24     5    23 1
    25     7    24 1
    26     8    25 1
    27    10    26 1
    28    12    27 1
    29    15    28 1
    30    15    29 1
    31    15    30 1
    32    16    31 1
    33    21    32 1
    34    21    33 1
    35    21    34 1
@<TRIPOS>SUBSTRUCTURE
     1 H1K         1 TEMP              0 ****  ****    0 ROOT
