@<TRIPOS>MOLECULE
H1K
   34    35     1     0     0
SMALL
bcc


@<TRIPOS>ATOM
      1 O1           0.0000     0.0000     0.0000 o          1 H1K      -0.629100
      2 C4           1.2150     0.0000     0.0000 c          1 H1K       0.536100
      3 N2           1.8890     0.0000     1.1670 ns         1 H1K      -0.121400
      4 C5           1.1960     0.1050     2.3720 ca         1 H1K       0.259900
      5 C8           1.8950     0.2100     3.5710 ca         1 H1K       0.233900
      6 N4           1.2350     0.3100     4.7110 nb         1 H1K      -0.522000
      7 C7          -0.0880     0.3100     4.7120 ca         1 H1K       0.240900
      8 C6          -0.7840     0.2050     3.5230 ca         1 H1K       0.318900
      9 N3          -0.1300     0.1110     2.3780 nb         1 H1K      -0.522000
     10 N1           1.8890    -0.0050    -1.1680 ns         1 H1K      -0.031100
     11 C3           1.1930     0.1090    -2.3810 ca         1 H1K      -0.137400
     12 C2          -0.0520     0.7220    -2.4120 ca         1 H1K      -0.048000
     13 C9           1.7520    -0.3870    -3.5540 ca         1 H1K       0.155100
     14 O2           2.9740    -0.9860    -3.5270 os         1 H1K      -0.320900
     15 C10          3.4860    -1.4720    -4.7700 c3         1 H1K       0.250700
     16 C11          1.0630    -0.2740    -4.7510 ca         1 H1K      -0.295000
     17 C12         -0.1830     0.3350    -4.7770 ca         1 H1K       0.178100
     18 C1          -0.7370     0.8350    -3.6070 ca         1 H1K      -0.092600
     19 Cl          -2.2930     1.6020    -3.6440 cl         1 H1K      -0.004400
     20 O3          -0.8590     0.4480    -5.9510 os         1 H1K      -0.295900
     21 C13         -0.2270    -0.0830    -7.1180 c3         1 H1K       0.244700
     22 H3           2.8850    -0.1030     1.1700 hn         1 H1K       0.165500
     23 H6           2.9780     0.2110     3.5700 h4         1 H1K      -0.012900
     24 H5          -0.6270     0.3890     5.6490 h4         1 H1K      -0.008900
     25 H4          -1.8670     0.2080     3.5280 h4         1 H1K      -0.008900
     26 H2           2.8880    -0.0640    -1.1680 hn         1 H1K       0.165500
     27 H1          -0.4860     1.1130    -1.5000 ha         1 H1K       0.172000
     28 H9           4.4580    -1.9210    -4.6080 h1         1 H1K      -0.001300
     29 H7           3.5790    -0.6500    -5.4690 h1         1 H1K      -0.001300
     30 H8           2.8080    -2.2140    -5.1740 h1         1 H1K      -0.001300
     31 H10          1.4960    -0.6620    -5.6650 ha         1 H1K       0.141000
     32 H12          0.7190     0.4210    -7.2770 h1         1 H1K      -0.002633
     33 H11         -0.8680     0.0720    -7.9770 h1         1 H1K      -0.002633
     34 H13         -0.0530    -1.1440    -6.9830 h1         1 H1K      -0.002633
@<TRIPOS>BOND
     1     1     2 2   
     2     2     3 1   
     3     2    10 1   
     4     3     4 1   
     5     3    22 1   
     6     4     5 ar  
     7     4     9 ar  
     8     5     6 ar  
     9     5    23 1   
    10     6     7 ar  
    11     7     8 ar  
    12     7    24 1   
    13     8     9 ar  
    14     8    25 1   
    15    10    11 1   
    16    10    26 1   
    17    11    12 ar  
    18    11    13 ar  
    19    12    18 ar  
    20    12    27 1   
    21    13    14 1   
    22    13    16 ar  
    23    14    15 1   
    24    15    28 1   
    25    15    29 1   
    26    15    30 1   
    27    16    17 ar  
    28    16    31 1   
    29    17    18 ar  
    30    17    20 1   
    31    18    19 1   
    32    20    21 1   
    33    21    32 1   
    34    21    33 1   
    35    21    34 1   
@<TRIPOS>SUBSTRUCTURE
     1 H1K         1 TEMP              0 ****  ****    0 ROOT
