@<TRIPOS>MOLECULE
H1L
   34    35     1     0     0
SMALL
bcc


@<TRIPOS>ATOM
      1 O1A         0.5710    1.7930   -0.0150 o         1 H1L     -0.811800
      2 C1          1.1120    0.6610   -0.0760 c         1 H1L      0.933600
      3 O1B         1.0800   -0.1330   -1.0510 o         1 H1L     -0.811800
      4 C2          1.9740    0.1860    1.1520 c3        1 H1L     -0.009900
      5 C2A         2.9500    1.2630    1.5610 c3        1 H1L     -0.111100
      6 O2          1.0310   -0.0730    2.2090 os        1 H1L     -0.280900
      7 C3          1.4450   -0.8180    3.2710 ca        1 H1L      0.185100
      8 C4          2.7210   -1.3940    3.4200 ca        1 H1L     -0.199500
      9 C5          3.0160   -2.1480    4.5510 ca        1 H1L     -0.079000
     10 C6          0.4630   -1.0100    4.2750 ca        1 H1L     -0.199500
     11 C7          0.7580   -1.7580    5.4020 ca        1 H1L     -0.079000
     12 C8          2.0390   -2.3090    5.5370 ca        1 H1L     -0.004900
     13 O8          2.3940   -2.9310    6.7460 os        1 H1L     -0.340400
     14 C9          2.1430   -4.2750    6.8810 ca        1 H1L      0.679600
     15 N9          1.5580   -4.9910    5.8810 nb        1 H1L     -0.694000
     16 C10         1.3480   -6.2970    6.0920 ca        1 H1L      0.489200
     17 C11         1.6990   -6.9580    7.2850 ca        1 H1L     -0.346600
     18 C12         1.4480   -8.4420    7.4470 c3        1 H1L      0.703200
     19 F1          0.3910   -8.9290    6.7150 f         1 H1L     -0.240633
     20 F2          2.5020   -9.2430    7.0760 f         1 H1L     -0.240633
     21 F3          1.1740   -8.8400    8.7350 f         1 H1L     -0.240633
     22 C13         2.2980   -6.2230    8.3140 ca        1 H1L     -0.021000
     23 C14         2.5310   -4.8610    8.1290 ca        1 H1L     -0.143900
     24 CL1         3.2530   -3.9620    9.3660 cl        1 H1L     -0.054400
     25 H2          2.4950   -0.7680    0.8750 h1        1 H1L      0.039700
     26 H2A1        2.4010    2.2310    1.6760 hc        1 H1L      0.034700
     27 H2A2        3.4550    1.0150    2.5250 hc        1 H1L      0.034700
     28 H2A3        3.7200    1.3830    0.7630 hc        1 H1L      0.034700
     29 H4          3.4870   -1.2540    2.6450 ha        1 H1L      0.152500
     30 H6         -0.5290   -0.5570    4.1340 ha        1 H1L      0.152500
     31 H5          4.0080   -2.6040    4.6760 ha        1 H1L      0.132000
     32 H7          0.0050   -1.9170    6.1860 ha        1 H1L      0.132000
     33 H10         0.8660   -6.8460    5.2590 h4        1 H1L      0.045100
     34 H13         2.5750   -6.7180    9.2580 ha        1 H1L      0.161000
@<TRIPOS>BOND
     1    1    2 1   
     2    2    3 1   
     3    2    4 1   
     4    4    5 1   
     5    4    6 1   
     6    4   25 1   
     7    5   26 1   
     8    5   27 1   
     9    5   28 1   
    10    6    7 1   
    11    7    8 ar  
    12    7   10 ar  
    13    8    9 ar  
    14    8   29 1   
    15    9   12 ar  
    16    9   31 1   
    17   10   11 ar  
    18   10   30 1   
    19   11   12 ar  
    20   11   32 1   
    21   12   13 1   
    22   13   14 1   
    23   14   15 ar  
    24   14   23 ar  
    25   15   16 ar  
    26   16   17 ar  
    27   16   33 1   
    28   17   18 1   
    29   17   22 ar  
    30   18   19 1   
    31   18   20 1   
    32   18   21 1   
    33   22   23 ar  
    34   22   34 1   
    35   23   24 1   
@<TRIPOS>SUBSTRUCTURE
     1 H1L         1 TEMP              0 ****  ****    0 ROOT
