@<TRIPOS>MOLECULE
molecule
   34    35     1     0     0
SMALL
bcc


@<TRIPOS>ATOM
      1 O1A          0.0000     0.0000     0.0000 o          1 H1L      -0.823300
      2 C1           1.2080     0.0000     0.0000 c          1 H1L       0.896600
      3 O1B          1.8780     0.0050    -1.1630 o          1 H1L      -0.823300
      4 C2           1.9620     0.0000     1.3040 c3         1 H1L       0.019100
      5 C2A          2.7450     1.3070     1.4410 c3         1 H1L      -0.097100
      6 O2           1.0380    -0.1170     2.3880 os         1 H1L      -0.280900
      7 C3           1.4540    -0.8100     3.4810 ca         1 H1L       0.186100
      8 C4           2.7650    -1.2560     3.5620 ca         1 H1L      -0.200000
      9 C5           3.1880    -1.9600     4.6730 ca         1 H1L      -0.081500
     10 C6           0.5690    -1.0670     4.5180 ca         1 H1L      -0.200000
     11 C7           0.9920    -1.7710     5.6280 ca         1 H1L      -0.081500
     12 C8           2.3010    -2.2220     5.7070 ca         1 H1L       0.004100
     13 O8           2.7170    -2.9160     6.8010 os         1 H1L      -0.329400
     14 C9           2.3250    -4.2090     6.9200 ca         1 H1L       0.695600
     15 N9           1.4840    -4.7240     6.0380 nb         1 H1L      -0.727000
     16 C10          1.0780    -5.9760     6.1190 ca         1 H1L       0.512200
     17 C11          1.5190    -6.8010     7.1350 ca         1 H1L      -0.360600
     18 C12          1.0480    -8.2300     7.2160 c3         1 H1L       0.685200
     19 F1           0.1710    -8.4920     6.1560 f          1 H1L      -0.225633
     20 F2           2.1480    -9.0900     7.1330 f          1 H1L      -0.225633
     21 F3           0.3860    -8.4350     8.4300 f          1 H1L      -0.225633
     22 C13          2.4020    -6.3000     8.0800 ca         1 H1L      -0.017000
     23 C14          2.8150    -4.9830     7.9660 ca         1 H1L      -0.131900
     24 Cl1          3.9230    -4.3050     9.1170 cl         1 H1L      -0.081400
     25 H2           2.6500    -0.8370     1.3230 h1         1 H1L       0.042700
     26 H2A1         2.4310     1.8240     2.3400 hc         1 H1L       0.033700
     27 H2A2         2.5530     1.9350     0.5790 hc         1 H1L       0.033700
     28 H2A3         3.8040     1.0890     1.5010 hc         1 H1L       0.033700
     29 H4           3.4570    -1.0520     2.7550 ha         1 H1L       0.153000
     30 H6          -0.4540    -0.7150     4.4570 ha         1 H1L       0.153000
     31 H5           4.2110    -2.3100     4.7350 ha         1 H1L       0.129000
     32 H7           0.3000    -1.9730     6.4370 ha         1 H1L       0.129000
     33 H10          0.3900    -6.3640     5.3770 h4         1 H1L       0.048100
     34 H13          2.5790    -6.8450     8.9990 ha         1 H1L       0.159000
@<TRIPOS>BOND
     1     1     2 1
     2     2     3 1
     3     2     4 1
     4     4     5 1
     5     4     6 1
     6     6     7 1
     7     7     8 ar
     8     7    10 ar
     9     8     9 ar
    10     9    12 ar
    11    10    11 ar
    12    11    12 ar
    13    12    13 1
    14    13    14 1
    15    14    15 ar
    16    14    23 ar
    17    15    16 ar
    18    16    17 ar
    19    17    18 1
    20    17    22 ar
    21    18    19 1
    22    18    20 1
    23    18    21 1
    24    22    23 ar
    25    23    24 1
    26     4    25 1
    27     5    26 1
    28     5    27 1
    29     5    28 1
    30     8    29 1
    31    10    30 1
    32     9    31 1
    33    11    32 1
    34    16    33 1
    35    22    34 1
@<TRIPOS>SUBSTRUCTURE
     1 H1L         1 TEMP              0 ****  ****    0 ROOT
