@<TRIPOS>MOLECULE
molecule
   33    33     1     0     0
SMALL
bcc


@<TRIPOS>ATOM
      1 C9           0.0000     0.0000     0.0000 c3         1 H1M       0.127700
      2 O1           1.4300     0.0000     0.0000 os         1 H1M      -0.452600
      3 C1           2.0110     0.0000     1.3050 c3         1 H1M       0.331900
      4 C2           3.5170     0.2490     1.1920 c3         1 H1M      -0.102700
      5 C7           4.1320     0.3080     2.5930 c3         1 H1M      -0.074400
      6 C8           3.5770     1.5210     3.3430 c3         1 H1M       0.137400
      7 O8           4.1500     1.5760     4.6500 oh         1 H1M      -0.607800
      8 C3           4.1580    -0.8940     0.4000 c3         1 H1M       0.138100
      9 O3           5.5740    -0.7080     0.3520 oh         1 H1M      -0.607800
     10 C4           3.8380    -2.2230     1.0910 c3         1 H1M       0.109100
     11 O4           4.3700    -3.3020     0.3190 oh         1 H1M      -0.603800
     12 C5           2.3190    -2.3760     1.2070 c3         1 H1M       0.146100
     13 O5           1.7840    -1.2650     1.9290 os         1 H1M      -0.421600
     14 C6           1.9930    -3.6730     1.9490 c3         1 H1M       0.149400
     15 O6           0.5790    -3.8740     1.9570 oh         1 H1M      -0.602800
     16 H9          -0.3610     0.9760    -0.3020 h1         1 H1M       0.038367
     17 H9A         -0.3610    -0.2260     0.9960 h1         1 H1M       0.038367
     18 H9B         -0.3610    -0.7500    -0.6940 h1         1 H1M       0.038367
     19 H1           1.5620     0.7820     1.9050 h2         1 H1M       0.077700
     20 H2           3.6890     1.1860     0.6770 hc         1 H1M       0.071700
     21 H7           5.2090     0.3960     2.5110 hc         1 H1M       0.071700
     22 H7A          3.8840    -0.5970     3.1350 hc         1 H1M       0.071700
     23 H8           3.8250     2.4250     2.8010 h1         1 H1M       0.018700
     24 H8A          2.5000     1.4330     3.4240 h1         1 H1M       0.018700
     25 HO8          3.9490     2.4070     5.0470 ho         1 H1M       0.402000
     26 H3           3.7560    -0.9050    -0.6060 h1         1 H1M       0.065700
     27 HO3          5.8380    -0.5280    -0.5350 ho         1 H1M       0.409000
     28 H4           4.2770    -2.2280     2.0810 h1         1 H1M       0.056700
     29 HO4          5.1370    -3.6460     0.7460 ho         1 H1M       0.411000
     30 H5           1.8840    -2.4020     0.2150 h1         1 H1M       0.075700
     31 H6           2.4740    -4.5050     1.4500 h1         1 H1M       0.034700
     32 H6A          2.3540    -3.6060     2.9690 h1         1 H1M       0.034700
     33 HO6          0.3840    -4.7250     2.3140 ho         1 H1M       0.402000
@<TRIPOS>BOND
     1     2     1 1
     2     1    16 1
     3     1    17 1
     4     1    18 1
     5     3     2 1
     6     4     3 1
     7     3    13 1
     8     3    19 1
     9     8     4 1
    10     5     4 1
    11     4    20 1
    12     5     6 1
    13     5    21 1
    14     5    22 1
    15     7     6 1
    16     6    23 1
    17     6    24 1
    18     7    25 1
    19     9     8 1
    20     8    10 1
    21     8    26 1
    22     9    27 1
    23    11    10 1
    24    10    12 1
    25    10    28 1
    26    11    29 1
    27    12    14 1
    28    12    13 1
    29    12    30 1
    30    15    14 1
    31    14    31 1
    32    14    32 1
    33    15    33 1
@<TRIPOS>SUBSTRUCTURE
     1 H1M         1 TEMP              0 ****  ****    0 ROOT
