@<TRIPOS>MOLECULE
H1M
   33    33     1     0     0
SMALL
bcc


@<TRIPOS>ATOM
      1 C9         -0.0590   -0.2260    0.1270 c3        1 H1M      0.119700
      2 O1          1.3580   -0.1310    0.1240 os        1 H1M     -0.450600
      3 C1          1.9410   -0.2140    1.4130 c3        1 H1M      0.334900
      4 C2          3.4320    0.1310    1.2700 c3        1 H1M     -0.108700
      5 C7          4.0480    0.3640    2.6370 c3        1 H1M     -0.090400
      6 C8          3.7960    1.7810    3.1250 c3        1 H1M      0.133400
      7 O8          4.3950    1.8870    4.4060 oh        1 H1M     -0.597800
      8 C3          4.1370   -0.9900    0.5000 c3        1 H1M      0.105100
      9 O3          5.5490   -0.8460    0.5020 oh        1 H1M     -0.604800
     10 C4          3.8470   -2.3580    1.1420 c3        1 H1M      0.127100
     11 O4          4.4060   -3.4050    0.3690 oh        1 H1M     -0.595800
     12 C5          2.3280   -2.5740    1.1680 c3        1 H1M      0.104100
     13 O5          1.6900   -1.5180    1.8940 os        1 H1M     -0.451600
     14 C6          1.9620   -3.8640    1.9060 c3        1 H1M      0.140400
     15 O6          0.5750   -4.1130    1.8430 oh        1 H1M     -0.596800
     16 H9         -0.3840   -1.1930    0.5840 h1        1 H1M      0.040367
     17 H9A        -0.5040    0.6340    0.6850 h1        1 H1M      0.040367
     18 H9B        -0.3390   -0.1830   -0.9550 h1        1 H1M      0.040367
     19 H1          1.4230    0.4600    2.1530 h2        1 H1M      0.077700
     20 H2          3.5070    1.0730    0.6570 hc        1 H1M      0.069700
     21 H7          3.6280   -0.3650    3.3790 hc        1 H1M      0.075200
     22 H7A         5.1560    0.1860    2.5870 hc        1 H1M      0.075200
     23 H8          4.2560    2.5300    2.4250 h1        1 H1M      0.018700
     24 H8A         2.6940    1.9880    3.1990 h1        1 H1M      0.018700
     25 HO8         4.2320    2.7850    4.7140 ho        1 H1M      0.402000
     26 H3          3.7600   -0.9920   -0.5630 h1        1 H1M      0.066700
     27 HO3         5.7450    0.0060    0.0940 ho        1 H1M      0.410000
     28 H4          4.2710   -2.3840    2.1830 h1        1 H1M      0.059700
     29 HO4         5.3410   -3.1890    0.2530 ho        1 H1M      0.424000
     30 H5          1.9220   -2.5930    0.1190 h1        1 H1M      0.079700
     31 H6          2.3000   -3.8050    2.9740 h1        1 H1M      0.062700
     32 H6A         2.4500   -4.7330    1.3890 h1        1 H1M      0.062700
     33 HO6         0.1330   -3.3480    2.2330 ho        1 H1M      0.407000
@<TRIPOS>BOND
     1    1    2 1   
     2    1   16 1   
     3    1   17 1   
     4    1   18 1   
     5    2    3 1   
     6    3    4 1   
     7    3   13 1   
     8    3   19 1   
     9    4    5 1   
    10    4    8 1   
    11    4   20 1   
    12    5    6 1   
    13    5   21 1   
    14    5   22 1   
    15    6    7 1   
    16    6   23 1   
    17    6   24 1   
    18    7   25 1   
    19    8    9 1   
    20    8   10 1   
    21    8   26 1   
    22    9   27 1   
    23   10   11 1   
    24   10   12 1   
    25   10   28 1   
    26   11   29 1   
    27   12   13 1   
    28   12   14 1   
    29   12   30 1   
    30   14   15 1   
    31   14   31 1   
    32   14   32 1   
    33   15   33 1   
@<TRIPOS>SUBSTRUCTURE
     1 H1M         1 TEMP              0 ****  ****    0 ROOT
