@<TRIPOS>MOLECULE
H1N
   69    73     1     0     0
SMALL
bcc


@<TRIPOS>ATOM
      1 CAJ         0.5430    0.4050    0.5150 c3        1 H1N      0.168300
      2 CAL         1.9450    0.8930    0.8730 c3        1 H1N     -0.076900
      3 CAW         2.1410    0.9290    2.3730 c3        1 H1N     -0.078400
      4 CAV         1.0460    1.7410    3.0290 c3        1 H1N     -0.076900
      5 CAK        -0.3370    1.2370    2.6190 c3        1 H1N      0.168300
      6 NAI        -0.5150    1.1600    1.1740 n3        1 H1N     -0.728600
      7 CAH        -1.8450    0.6750    0.8260 c3        1 H1N      0.214100
      8 CAG        -2.1930    0.8270   -0.6260 ca        1 H1N     -0.083300
      9 CAS        -2.0230    2.0510   -1.2790 ca        1 H1N     -0.115500
     10 CAR        -2.4010    2.2070   -2.6080 ca        1 H1N     -0.126000
     11 CAF        -2.7450   -0.2500   -1.3260 ca        1 H1N     -0.115500
     12 CAE        -3.1200   -0.1110   -2.6580 ca        1 H1N     -0.126000
     13 CAQ        -2.9560    1.1220   -3.3250 ca        1 H1N      0.123400
     14 NAP        -3.4200    1.3560   -4.6360 ne        1 H1N     -0.557100
     15 CAO        -3.2410    0.5530   -5.6290 cf        1 H1N      0.505900
     16 CAN        -2.5020   -0.7310   -5.6590 ca        1 H1N     -0.195900
     17 CAM        -1.1210   -0.7600   -5.4370 ca        1 H1N     -0.107000
     18 CAC        -0.4340   -1.9720   -5.4950 ca        1 H1N     -0.133000
     19 CAA        -1.1210   -3.1550   -5.7690 ca        1 H1N     -0.117000
     20 CAB        -2.4990   -3.1260   -5.9890 ca        1 H1N     -0.133000
     21 CAD        -3.1910   -1.9180   -5.9390 ca        1 H1N     -0.107000
     22 CBD        -3.8520    0.9030   -6.9720 c3        1 H1N     -0.129700
     23 CBC        -3.7010    2.3420   -7.3830 ca        1 H1N     -0.107300
     24 CBB        -2.5720    3.0990   -7.5860 ca        1 H1N     -0.097000
     25 CBJ        -5.3940    0.7270   -6.9270 c         1 H1N      0.711500
     26 OBK        -6.0160   -0.2990   -6.6350 o         1 H1N     -0.601500
     27 NBI        -5.9950    1.9310   -7.3330 n         1 H1N     -0.466100
     28 CBH        -5.0080    2.9030   -7.5720 ca        1 H1N      0.051600
     29 CBG        -5.1510    4.2290   -7.9670 ca        1 H1N     -0.140000
     30 CBF        -4.0010    4.9930   -8.1830 ca        1 H1N     -0.131000
     31 CBA        -2.7140    4.4550   -7.9880 ca        1 H1N      0.113600
     32 NAZ        -1.5600    5.2330   -8.2000 nh        1 H1N     -0.784500
     33 SAY        -1.3570    6.8090   -7.8500 s6        1 H1N      1.454900
     34 OBE        -0.0760    7.1780   -8.3120 o         1 H1N     -0.648800
     35 OAU        -2.4440    7.5840   -8.2960 o         1 H1N     -0.648800
     36 CAX        -1.3510    6.8220   -6.1320 c3        1 H1N     -0.318600
     37 CAT        -1.1900    8.2270   -5.6110 c3        1 H1N     -0.076100
     38 HAJ1        0.3880    0.5150   -0.5960 h1        1 H1N      0.031200
     39 HAJ2        0.4760   -0.6970    0.7610 h1        1 H1N      0.031200
     40 HAL1        2.6900    0.2020    0.4020 hc        1 H1N      0.046700
     41 HAL2        2.1100    1.9170    0.4470 hc        1 H1N      0.046700
     42 HAW1        2.1290   -0.1170    2.7790 hc        1 H1N      0.039700
     43 HAW2        3.1410    1.3730    2.6160 hc        1 H1N      0.039700
     44 HAV1        1.1290    1.6740    4.1440 hc        1 H1N      0.046700
     45 HAV2        1.1540    2.8200    2.7410 hc        1 H1N      0.046700
     46 HAK1       -0.5110    0.2340    3.1100 h1        1 H1N      0.031200
     47 HAK2       -1.1130    1.9500    3.0190 h1        1 H1N      0.031200
     48 HAH1       -1.9800   -0.4080    1.1250 h1        1 H1N      0.039700
     49 HAH2       -2.5920    1.2820    1.4190 h1        1 H1N      0.039700
     50 HAS        -1.5860    2.9030   -0.7340 ha        1 H1N      0.141500
     51 HAR        -2.2670    3.1830   -3.1000 ha        1 H1N      0.142500
     52 HAF        -2.8870   -1.2190   -0.8240 ha        1 H1N      0.141500
     53 HAE        -3.5530   -0.9710   -3.1940 ha        1 H1N      0.142500
     54 HAM        -0.5790    0.1700   -5.2120 ha        1 H1N      0.150000
     55 HAC         0.6520   -1.9940   -5.3220 ha        1 H1N      0.137000
     56 HAA        -0.5770   -4.1100   -5.8120 ha        1 H1N      0.135000
     57 HAB        -3.0420   -4.0580   -6.2040 ha        1 H1N      0.137000
     58 HAD        -4.2800   -1.8860   -6.1190 ha        1 H1N      0.150000
     59 HBB        -1.5740    2.6590   -7.4390 ha        1 H1N      0.142000
     60 HBI        -6.9580    2.1340   -7.2520 hn        1 H1N      0.343500
     61 HBG        -6.1430    4.6780   -8.1190 ha        1 H1N      0.148000
     62 HBF        -4.1260    6.0420   -8.5110 ha        1 H1N      0.174000
     63 HAZ        -0.8010    4.7090   -8.5760 hn        1 H1N      0.457800
     64 HAX1       -0.5200    6.1930   -5.7160 h1        1 H1N      0.112200
     65 HAX2       -2.2960    6.3920   -5.7060 h1        1 H1N      0.112200
     66 HAT1       -2.0290    8.8750   -5.9680 hc        1 H1N      0.054700
     67 HAT2       -1.1950    8.2320   -4.4940 hc        1 H1N      0.054700
     68 HAT3       -0.2210    8.6650   -5.9580 hc        1 H1N      0.054700
     69 HC1        -3.4410    0.2160   -7.7610 hc        1 H1N      0.112700
@<TRIPOS>BOND
     1    1    2 1   
     2    1    6 1   
     3    1   38 1   
     4    1   39 1   
     5    2    3 1   
     6    2   40 1   
     7    2   41 1   
     8    3    4 1   
     9    3   42 1   
    10    3   43 1   
    11    4    5 1   
    12    4   44 1   
    13    4   45 1   
    14    5    6 1   
    15    5   46 1   
    16    5   47 1   
    17    6    7 1   
    18    7    8 1   
    19    7   48 1   
    20    7   49 1   
    21    8    9 ar  
    22    8   11 ar  
    23    9   10 ar  
    24    9   50 1   
    25   10   13 ar  
    26   10   51 1   
    27   11   12 ar  
    28   11   52 1   
    29   12   13 ar  
    30   12   53 1   
    31   13   14 1   
    32   14   15 2   
    33   15   16 1   
    34   15   22 1   
    35   16   17 ar  
    36   16   21 ar  
    37   17   18 ar  
    38   17   54 1   
    39   18   19 ar  
    40   18   55 1   
    41   19   20 ar  
    42   19   56 1   
    43   20   21 ar  
    44   20   57 1   
    45   21   58 1   
    46   22   23 1   
    47   22   25 1   
    48   22   69 1   
    49   23   24 ar  
    50   23   28 ar  
    51   24   31 ar  
    52   24   59 1   
    53   25   26 2   
    54   25   27 1   
    55   27   28 1   
    56   27   60 1   
    57   28   29 ar  
    58   29   30 ar  
    59   29   61 1   
    60   30   31 ar  
    61   30   62 1   
    62   31   32 1   
    63   32   33 1   
    64   32   63 1   
    65   33   34 2   
    66   33   35 2   
    67   33   36 1   
    68   36   37 1   
    69   36   64 1   
    70   36   65 1   
    71   37   66 1   
    72   37   67 1   
    73   37   68 1   
@<TRIPOS>SUBSTRUCTURE
     1 H1N         1 TEMP              0 ****  ****    0 ROOT
