@<TRIPOS>MOLECULE
H20
   44    42     1     0     0
SMALL
bcc


@<TRIPOS>ATOM
      1 CA         -0.3950    0.3820    0.0620 c2        1 H20     -0.066000
      2 CB          4.1710   -2.1090   -0.1600 c3        1 H20     -0.209000
      3 CC          3.1420   -2.9050    0.6020 c3        1 H20     -0.159000
      4 CD          1.7220   -2.5130    0.2530 c3        1 H20     -0.155000
      5 CE          1.3250   -1.1890    0.8780 c3        1 H20     -0.119000
      6 CF         -0.0720   -0.8290    0.5410 c2        1 H20     -0.193000
      7 N1         -2.9470    3.6760   -3.0060 n2        1 H20     -0.236000
      8 C6         -1.6040    3.2010   -2.9000 c2        1 H20      0.319000
      9 O2         -0.7120    3.6240   -3.6660 o         1 H20     -0.354000
     10 C5         -1.2990    2.1670   -1.9090 c2        1 H20     -0.325000
     11 C4         -2.1420    1.5980   -1.0200 c2        1 H20      0.181000
     12 O4         -1.7580    0.6470   -0.0950 os        1 H20     -0.165000
     13 C2         -3.1860    4.8930   -3.3630 c2        1 H20      0.122000
     14 C3         -3.5880    1.8350   -0.9050 c2        1 H20     -0.046000
     15 C7         -4.1780    2.2150    0.1920 c1        1 H20     -0.138000
     16 C8         -4.7880    2.6240    1.2650 c2        1 H20     -0.093000
     17 C9         -5.5980    5.8650   -3.6340 c1        1 H20     -0.135000
     18 C10        -4.5010    5.4050   -3.5030 c1        1 H20     -0.167000
     19 CL         -5.4510    1.5680    2.4140 cl        1 H20     -0.015000
     20 C12         2.2310    2.2500   -2.8240 c3        1 H20     -0.278000
     21 C13         3.1980    2.3320   -0.4950 c3        1 H20     -0.278000
     22 HA          4.0860   -1.0200    0.0740 hc        1 H20      0.070333
     23 HB1         0.3180    1.1930   -0.1740 h4        1 H20      0.193000
     24 HB2         5.2000   -2.4470    0.1110 hc        1 H20      0.070333
     25 HC1         4.0350   -2.2410   -1.2610 hc        1 H20      0.070333
     26 HC2         3.2810   -3.9950    0.3740 hc        1 H20      0.079000
     27 HD1         3.3070   -2.7740    1.7040 hc        1 H20      0.079000
     28 HD2         1.6110   -2.4490   -0.8620 hc        1 H20      0.082500
     29 HE1         1.0210   -3.3130    0.6110 hc        1 H20      0.082500
     30 HE2         1.4180   -1.2640    1.9970 hc        1 H20      0.085000
     31 HF1         2.0330   -0.3850    0.5400 hc        1 H20      0.085000
     32 HF2        -0.8380   -1.5970    0.7310 ha        1 H20      0.137000
     33 HN1        -2.3840    5.6410   -3.5820 h4        1 H20      0.136000
     34 H7         -4.1620    1.6770   -1.8390 ha        1 H20      0.182000
     35 H9         -4.9310    3.6840    1.5200 h4        1 H20      0.166000
     36 H10        -6.5670    6.2810   -3.7520 ha        1 H20      0.231000
     37 H11        -0.2280    1.8760   -1.9380 ha        1 H20      0.193000
     38 H121        3.2290    2.5980   -3.1950 hc        1 H20      0.111333
     39 H122        1.9680    1.2850   -3.3380 hc        1 H20      0.111333
     40 H123        1.4440    2.9970   -3.1400 hc        1 H20      0.111333
     41 H131        3.4520    1.3710    0.0320 hc        1 H20      0.111333
     42 H132        4.1330    2.7450   -0.9540 hc        1 H20      0.111333
     43 H133        2.8330    3.0500    0.2870 hc        1 H20      0.111333
     44 C11         2.1070    2.0540   -1.4020 c1        1 H20     -0.102000
@<TRIPOS>BOND
     1    1    6 1   
     2    1   12 1   
     3    1   23 1   
     4    2    3 1   
     5    2   22 1   
     6    2   24 1   
     7    2   25 1   
     8    3    4 1   
     9    3   26 1   
    10    3   27 1   
    11    4    5 1   
    12    4   28 1   
    13    4   29 1   
    14    5    6 1   
    15    5   30 1   
    16    5   31 1   
    17    6   32 1   
    18    7    8 1   
    19    7   13 1   
    20    8    9 1   
    21    8   10 1   
    22   10   11 1   
    23   10   37 1   
    24   11   12 1   
    25   11   14 1   
    26   13   18 1   
    27   13   33 1   
    28   14   15 1   
    29   14   34 1   
    30   15   16 1   
    31   16   19 1   
    32   16   35 1   
    33   17   18 1   
    34   17   36 1   
    35   20   38 1   
    36   20   39 1   
    37   20   40 1   
    38   20   44 1   
    39   21   41 1   
    40   21   42 1   
    41   21   43 1   
    42   21   44 1   
@<TRIPOS>SUBSTRUCTURE
     1 H20         1 TEMP              0 ****  ****    0 ROOT
