@<TRIPOS>MOLECULE
H21
   46    49     1     0     0
SMALL
bcc


@<TRIPOS>ATOM
      1 F3           0.0000     0.0000     0.0000 f          1 H21      -0.109900
      2 C17          1.3310     0.0000     0.0000 ca         1 H21       0.139900
      3 C11          1.9900     0.0000     1.2260 ca         1 H21      -0.106000
      4 C9           3.3740    -0.0120     1.2460 ca         1 H21      -0.074400
      5 N1           4.0670    -0.0280     2.5160 n          1 H21       0.162800
      6 C21          4.4380    -1.1930     3.1210 cc         1 H21      -0.111400
      7 C29          5.0860    -1.2420     4.3020 cd         1 H21      -0.219000
      8 C30          5.4000    -0.0230     4.9420 cd         1 H21      -0.006000
      9 C23          5.0550     1.1470     4.3650 cc         1 H21      -0.255200
     10 C8           4.3620     1.2040     3.1210 c          1 H21       0.611700
     11 O25          4.0200     2.2380     2.5730 o          1 H21      -0.659500
     12 C26          4.0700    -0.0260     0.0280 ca         1 H21      -0.084000
     13 C28          3.3990    -0.0090    -1.2040 ca         1 H21      -0.073000
     14 C16          2.0000     0.0080    -1.2210 ca         1 H21      -0.114400
     15 N15          1.2770     0.0160    -2.3900 ns         1 H21      -0.024100
     16 C14          0.4890     1.0650    -2.6870 c          1 H21       0.556100
     17 O27          0.4300     2.0130    -1.9320 o          1 H21      -0.608100
     18 C22         -0.3410     1.1190    -3.9640 c3         1 H21      -0.093700
     19 N4          -0.2350    -0.1060    -4.7270 na         1 H21       0.397600
     20 C20          0.1630    -0.2760    -5.9840 cc         1 H21       0.283400
     21 C5          -1.3550    -4.1750    -4.1590 c          1 H21       0.642700
     22 O24         -2.1200    -3.5910    -3.4140 o          1 H21      -0.569100
     23 C2          -1.1350    -5.6190    -4.0960 cc         1 H21      -0.116700
     24 C12         -0.3900    -6.4440    -4.8850 cd         1 H21      -0.073000
     25 C19         -0.3620    -7.7650    -4.4030 cd         1 H21      -0.118000
     26 S3          -1.7910    -6.4150    -2.7380 ss         1 H21      -0.105800
     27 C10         -1.0540    -7.8700    -3.2530 cc         1 H21       0.003300
     28 Cl1         -1.2750    -9.2400    -2.2600 cl         1 H21       0.060600
     29 N2           0.1320    -1.5610    -6.3090 nd         1 H21      -0.666000
     30 N5          -0.5560    -1.2980    -4.1840 nc         1 H21      -0.674800
     31 C1          -0.3580    -2.1000    -5.1970 cd         1 H21       0.536900
     32 H11          1.4370     0.1900     2.1380 ha         1 H21       0.137000
     33 H26          5.1540    -0.0380     0.0390 ha         1 H21       0.113000
     34 H21          4.1960    -2.1270     2.6280 h4         1 H21       0.120000
     35 H29          5.3580    -2.1910     4.7470 ha         1 H21       0.126000
     36 H30          5.9230    -0.0280     5.8910 ha         1 H21       0.104000
     37 H23          5.3030     2.0730     4.8690 ha         1 H21       0.131000
     38 H28          3.9580    -0.0120    -2.1320 ha         1 H21       0.113000
     39 H15          1.3620    -0.7450    -3.0360 hn         1 H21       0.181500
     40 H221         0.0040     1.9460    -4.5730 h1         1 H21       0.064700
     41 H222        -1.3800     1.2830    -3.7020 h1         1 H21       0.064700
     42 H20          0.5070     0.5180    -6.6350 h5         1 H21       0.026100
     43 H7           0.0910    -4.1110    -5.6060 hn         1 H21       0.180500
     44 H12          0.1000    -6.1250    -5.7970 ha         1 H21       0.124000
     45 H19          0.1690    -8.5820    -4.8770 ha         1 H21       0.137000
     46 N7          -0.4900    -3.5320    -5.0330 ns         1 H21      -0.154400
@<TRIPOS>BOND
     1     1     2 1   
     2     2     3 ar  
     3     2    14 ar  
     4     3     4 ar  
     5     3    32 1   
     6     4     5 1   
     7     4    12 ar  
     8     5     6 1   
     9     5    10 1   
    10     6     7 2   
    11     6    34 1   
    12     7     8 1   
    13     7    35 1   
    14     8     9 2   
    15     8    36 1   
    16     9    10 1   
    17     9    37 1   
    18    10    11 2   
    19    12    13 ar  
    20    12    33 1   
    21    13    14 ar  
    22    13    38 1   
    23    14    15 1   
    24    15    16 1   
    25    15    39 1   
    26    16    17 2   
    27    16    18 1   
    28    18    19 1   
    29    18    40 1   
    30    18    41 1   
    31    19    20 1   
    32    19    30 1   
    33    20    29 2   
    34    20    42 1   
    35    21    22 2   
    36    21    23 1   
    37    21    46 1   
    38    23    24 2   
    39    23    26 1   
    40    24    25 1   
    41    24    44 1   
    42    25    27 2   
    43    25    45 1   
    44    26    27 1   
    45    27    28 1   
    46    29    31 1   
    47    30    31 2   
    48    31    46 1   
    49    43    46 1   
@<TRIPOS>SUBSTRUCTURE
     1 H21         1 TEMP              0 ****  ****    0 ROOT
