@<TRIPOS>MOLECULE
H22
   52    55     1     0     0
SMALL
bcc


@<TRIPOS>ATOM
      1 F3           0.0000     0.0000     0.0000 f          1 H22      -0.111900
      2 C17          1.3440     0.0000     0.0000 ca         1 H22       0.126900
      3 C11          2.0030     0.0000     1.2220 ca         1 H22      -0.083000
      4 C9           3.3850     0.0020     1.2550 ca         1 H22      -0.130400
      5 N1           4.0230     0.0100     2.5190 n          1 H22       0.318800
      6 C21          4.5690    -1.1020     2.9990 cc         1 H22      -0.147400
      7 C29          5.2070    -1.1290     4.2320 cd         1 H22      -0.235000
      8 C30          5.3280     0.0320     5.1000 cd         1 H22       0.014000
      9 C23          4.7040     1.2180     4.5320 cc         1 H22      -0.232200
     10 C8           4.0870     1.1970     3.2940 c          1 H22       0.519700
     11 O25          3.5320     2.3500     2.8510 o          1 H22      -0.734500
     12 C26          4.1030     0.0010     0.0530 ca         1 H22      -0.071000
     13 C28          3.4330    -0.0030    -1.1820 ca         1 H22      -0.092000
     14 C16          2.0380     0.0080    -1.2030 ca         1 H22      -0.101400
     15 N15          1.3450     0.0140    -2.3730 ns         1 H22      -0.031100
     16 C14          0.4330     0.9690    -2.6250 c          1 H22       0.561100
     17 O27          0.1130     1.8260    -1.8180 o          1 H22      -0.610100
     18 C22         -0.2340     1.0000    -3.9850 c3         1 H22       0.071800
     19 N4          -0.1330    -0.3020    -4.6520 n3         1 H22      -0.562600
     20 C20         -1.0310    -1.3000    -4.0310 c3         1 H22       0.123800
     21 C24         -1.6810    -2.1130    -5.1490 c3         1 H22       0.022700
     22 C34         -1.1400    -1.5100    -6.4410 c3         1 H22      -0.047400
     23 C31         -0.5280    -0.1610    -6.0620 c3         1 H22       0.161800
     24 N7          -1.1840    -3.4870    -5.0460 ns         1 H22      -0.167900
     25 C5          -1.6240    -4.2710    -4.0610 c          1 H22       0.616700
     26 O24         -2.4290    -3.8580    -3.2370 o          1 H22      -0.648100
     27 C2          -1.1410    -5.6740    -3.9220 cc         1 H22      -0.115700
     28 C12         -0.2590    -6.4860    -4.6520 cd         1 H22      -0.064000
     29 C19         -0.1270    -7.7560    -4.1010 cd         1 H22      -0.112000
     30 S3          -1.8330    -6.4370    -2.5220 ss         1 H22      -0.080800
     31 C10         -0.9250    -7.8370    -2.9670 cc         1 H22       0.022300
     32 Cl1         -1.0490    -9.3480    -1.9190 cl         1 H22       0.004600
     33 H11          1.4390     0.0960     2.1420 ha         1 H22       0.138000
     34 H26          5.1860    -0.0030     0.0760 ha         1 H22       0.112000
     35 H21          4.5200    -2.0100     2.4110 h4         1 H22       0.130000
     36 H29          5.6360    -2.0660     4.5670 ha         1 H22       0.116000
     37 H30          5.8220     0.0150     6.0640 ha         1 H22       0.119000
     38 H23          4.7310     2.1450     5.0910 ha         1 H22       0.137000
     39 H28          3.9940    -0.0010    -2.1090 ha         1 H22       0.116000
     40 H15          1.5200    -0.6960    -3.0560 hn         1 H22       0.193500
     41 H221         0.2460     1.7520    -4.5990 h1         1 H22       0.041700
     42 H222        -1.2800     1.2560    -3.8610 h1         1 H22       0.041700
     43 H201        -1.7960    -0.7940    -3.4550 h1         1 H22       0.038200
     44 H202        -0.4570    -1.9570    -3.3890 h1         1 H22       0.038200
     45 H311         0.3410     0.0420    -6.6760 h1         1 H22       0.020200
     46 H312        -1.2640     0.6270    -6.1680 h1         1 H22       0.020200
     47 H24         -2.7620    -2.0630    -5.1040 h1         1 H22       0.060700
     48 H341        -1.9470    -1.3650    -7.1490 hc         1 H22       0.027200
     49 H342        -0.3800    -2.1570    -6.8620 hc         1 H22       0.027200
     50 H7          -0.6220    -3.8720    -5.7790 hn         1 H22       0.181500
     51 H12          0.2600    -6.1600    -5.5460 ha         1 H22       0.118000
     52 H19          0.4950    -8.5510    -4.4920 ha         1 H22       0.140000
@<TRIPOS>BOND
     1     1     2 1   
     2     2     3 ar  
     3     2    14 ar  
     4     3     4 ar  
     5     3    33 1   
     6     4     5 1   
     7     4    12 ar  
     8     5     6 1   
     9     5    10 1   
    10     6     7 2   
    11     6    35 1   
    12     7     8 1   
    13     7    36 1   
    14     8     9 2   
    15     8    37 1   
    16     9    10 1   
    17     9    38 1   
    18    10    11 2   
    19    12    13 ar  
    20    12    34 1   
    21    13    14 ar  
    22    13    39 1   
    23    14    15 1   
    24    15    16 1   
    25    15    40 1   
    26    16    17 2   
    27    16    18 1   
    28    18    19 1   
    29    18    41 1   
    30    18    42 1   
    31    19    20 1   
    32    19    23 1   
    33    20    21 1   
    34    20    43 1   
    35    20    44 1   
    36    21    22 1   
    37    21    24 1   
    38    21    47 1   
    39    22    23 1   
    40    22    48 1   
    41    22    49 1   
    42    23    45 1   
    43    23    46 1   
    44    24    25 1   
    45    24    50 1   
    46    25    26 2   
    47    25    27 1   
    48    27    28 2   
    49    27    30 1   
    50    28    29 1   
    51    28    51 1   
    52    29    31 2   
    53    29    52 1   
    54    30    31 1   
    55    31    32 1   
@<TRIPOS>SUBSTRUCTURE
     1 H22         1 TEMP              0 ****  ****    0 ROOT
