@<TRIPOS>MOLECULE
molecule
   45    44     1     0     0
SMALL
bcc


@<TRIPOS>ATOM
      1 CAA          0.0000     0.0000     0.0000 c3         1 H23      -0.092100
      2 CAI          1.5300     0.0000     0.0000 c3         1 H23      -0.085400
      3 CAJ          2.0400     0.0000     1.4430 c3         1 H23      -0.082400
      4 CAK          3.5700     0.0010     1.4420 c3         1 H23      -0.083400
      5 CAL          4.0800     0.0010     2.8850 c3         1 H23      -0.084400
      6 CAM          5.6090     0.0020     2.8850 c3         1 H23      -0.084400
      7 CAN          6.1200     0.0020     4.3290 c3         1 H23      -0.086400
      8 CAO          7.6490     0.0040     4.3280 c3         1 H23      -0.078400
      9 CAP          8.1600     0.0030     5.7700 c3         1 H23      -0.079400
     10 CAQ          9.6900     0.0040     5.7700 c3         1 H23      -0.123400
     11 CAR         10.1990     0.0040     7.2130 c3         1 H23       0.003600
     12 CAS         11.7290     0.0050     7.2130 c3         1 H23      -0.174600
     13 PAT         12.3360     1.4940     6.3540 p5         1 H23       1.121700
     14 OAE         11.7990     2.8080     7.1130 o          1 H23      -0.947833
     15 OAF         13.8170     1.4950     6.3550 o          1 H23      -0.947833
     16 OAB         11.8000     1.4940     4.8360 o          1 H23      -0.947833
     17 PAU         12.3370     0.0050     8.9330 p5         1 H23       1.121700
     18 OAG         11.8430     1.2130     9.6300 o          1 H23      -0.947833
     19 OAH         11.8010    -1.3100     9.6910 o          1 H23      -0.947833
     20 OAC         13.9470     0.0060     8.9320 o          1 H23      -0.947833
     21 OAD         12.2070    -1.1620     6.5390 oh         1 H23      -0.645800
     22 HAA1        -0.3610    -0.8840     0.5110 hc         1 H23       0.022700
     23 HAA2        -0.3610    -0.0010    -1.0210 hc         1 H23       0.022700
     24 HAA3        -0.3610     0.8850     0.5100 hc         1 H23       0.022700
     25 HAI1         1.8920    -0.8850    -0.5110 hc         1 H23       0.036700
     26 HAI2         1.8920     0.8850    -0.5110 hc         1 H23       0.036700
     27 HAJ1         1.6790    -0.8850     1.9530 hc         1 H23       0.036200
     28 HAJ2         1.6780     0.8840     1.9530 hc         1 H23       0.036200
     29 HAK1         3.9320    -0.8830     0.9310 hc         1 H23       0.037700
     30 HAK2         3.9300     0.8860     0.9320 hc         1 H23       0.037700
     31 HAL1         3.7200    -0.8830     3.3960 hc         1 H23       0.032700
     32 HAL2         3.7190     0.8860     3.3960 hc         1 H23       0.032700
     33 HAM1         5.9700     0.8870     2.3750 hc         1 H23       0.036200
     34 HAM2         5.9710    -0.8820     2.3750 hc         1 H23       0.036200
     35 HAN1         5.7580     0.8860     4.8400 hc         1 H23       0.024700
     36 HAN2         5.7590    -0.8830     4.8390 hc         1 H23       0.024700
     37 HAO1         8.0090     0.8890     3.8180 hc         1 H23       0.039200
     38 HAO2         8.0110    -0.8800     3.8160 hc         1 H23       0.039200
     39 HAP1         7.7980     0.8870     6.2820 hc         1 H23       0.004700
     40 HAP2         7.7990    -0.8820     6.2800 hc         1 H23       0.004700
     41 HAQ1        10.0500     0.8890     5.2600 hc         1 H23       0.084700
     42 HAQ2        10.0520    -0.8800     5.2590 hc         1 H23       0.084700
     43 HAR1         9.8380     0.8880     7.7240 hc         1 H23       0.014700
     44 HAR2         9.8390    -0.8810     7.7230 hc         1 H23       0.014700
     45 HOAD        13.0840    -1.3550     6.8280 ho         1 H23       0.378000
@<TRIPOS>BOND
     1     1     2 1
     2     1    22 1
     3     1    23 1
     4     1    24 1
     5     2     3 1
     6     2    25 1
     7     2    26 1
     8     3     4 1
     9     3    27 1
    10     3    28 1
    11     4     5 1
    12     4    29 1
    13     4    30 1
    14     5     6 1
    15     5    31 1
    16     5    32 1
    17     6     7 1
    18     6    33 1
    19     6    34 1
    20     7     8 1
    21     7    35 1
    22     7    36 1
    23     8     9 1
    24     8    37 1
    25     8    38 1
    26     9    10 1
    27     9    39 1
    28     9    40 1
    29    10    11 1
    30    10    41 1
    31    10    42 1
    32    11    12 1
    33    11    43 1
    34    11    44 1
    35    12    13 1
    36    12    17 1
    37    12    21 1
    38    13    15 1
    39    13    14 1
    40    13    16 1
    41    17    18 1
    42    17    19 1
    43    17    20 1
    44    21    45 1
@<TRIPOS>SUBSTRUCTURE
     1 H23         1 TEMP              0 ****  ****    0 ROOT
