@<TRIPOS>MOLECULE
H23
   45    44     1     0     0
SMALL
bcc


@<TRIPOS>ATOM
      1 CAA         0.0250   -0.0950    0.0590 c3        1 H23     -0.088100
      2 CAI         1.4960   -0.4090    0.1480 c3        1 H23     -0.081400
      3 CAJ         2.0840    0.0280    1.4730 c3        1 H23     -0.078400
      4 CAK         3.5620   -0.2900    1.5570 c3        1 H23     -0.079400
      5 CAL         4.1500    0.1480    2.8820 c3        1 H23     -0.079400
      6 CAM         5.6280   -0.1690    2.9670 c3        1 H23     -0.079400
      7 CAN         6.2190    0.2690    4.2910 c3        1 H23     -0.079400
      8 CAO         7.7000   -0.0470    4.3780 c3        1 H23     -0.079400
      9 CAP         8.2970    0.3950    5.7020 c3        1 H23     -0.068400
     10 CAQ         9.7830    0.0870    5.7760 c3        1 H23     -0.076400
     11 CAR        10.3790    0.5520    7.1000 c3        1 H23     -0.057400
     12 CAS        11.8670    0.3080    7.2430 c3        1 H23     -0.163600
     13 PAT        12.5230    2.1100    6.9680 p5        1 H23      1.249700
     14 OAE        11.9980    2.9700    8.1080 o         1 H23     -0.984833
     15 OAF        14.0350    2.1850    6.8670 o         1 H23     -0.984833
     16 OAB        11.8730    2.5550    5.6580 o         1 H23     -0.984833
     17 PAU        11.9680   -1.0630    8.4560 p5        1 H23      1.249700
     18 OAG        10.9020   -0.9090    9.5390 o         1 H23     -0.984833
     19 OAH        11.6250   -2.2760    7.5730 o         1 H23     -0.984833
     20 OAC        13.3410   -1.2460    9.0800 o         1 H23     -0.984833
     21 OAD        12.4400   -0.2370    6.0710 oh        1 H23     -0.633800
     22 HAA1       -0.1490    1.0040    0.1650 hc        1 H23      0.021700
     23 HAA2       -0.5380   -0.6160    0.8710 hc        1 H23      0.021700
     24 HAA3       -0.3890   -0.4240   -0.9240 hc        1 H23      0.021700
     25 HAI1        2.0420    0.1040   -0.6890 hc        1 H23      0.035200
     26 HAI2        1.6540   -1.5120    0.0160 hc        1 H23      0.035200
     27 HAJ1        1.9300    1.1310    1.6060 hc        1 H23      0.035200
     28 HAJ2        1.5420   -0.4850    2.3110 hc        1 H23      0.035200
     29 HAK1        3.7170   -1.3930    1.4240 hc        1 H23      0.034200
     30 HAK2        4.1050    0.2230    0.7190 hc        1 H23      0.034200
     31 HAL1        3.9960    1.2510    3.0150 hc        1 H23      0.032200
     32 HAL2        3.6080   -0.3640    3.7200 hc        1 H23      0.032200
     33 HAM1        6.1710    0.3430    2.1290 hc        1 H23      0.031200
     34 HAM2        5.7830   -1.2720    2.8350 hc        1 H23      0.031200
     35 HAN1        5.6790   -0.2440    5.1300 hc        1 H23      0.026700
     36 HAN2        6.0660    1.3720    4.4230 hc        1 H23      0.026700
     37 HAO1        8.2420    0.4670    3.5410 hc        1 H23      0.027700
     38 HAO2        7.8540   -1.1500    4.2490 hc        1 H23      0.027700
     39 HAP1        7.7600   -0.1230    6.5390 hc        1 H23      0.017700
     40 HAP2        8.1410    1.4970    5.8290 hc        1 H23      0.017700
     41 HAQ1        9.9410   -1.0160    5.6610 hc        1 H23      0.049700
     42 HAQ2       10.3230    0.6130    4.9450 hc        1 H23      0.049700
     43 HAR1        9.8230    0.0360    7.9340 hc        1 H23      0.026700
     44 HAR2       10.1640    1.6550    7.2020 hc        1 H23      0.026700
     45 HOAD       12.2140   -1.1830    6.0430 ho        1 H23      0.356000
@<TRIPOS>BOND
     1    1    2 1   
     2    1   22 1   
     3    1   23 1   
     4    1   24 1   
     5    2    3 1   
     6    2   25 1   
     7    2   26 1   
     8    3    4 1   
     9    3   27 1   
    10    3   28 1   
    11    4    5 1   
    12    4   29 1   
    13    4   30 1   
    14    5    6 1   
    15    5   31 1   
    16    5   32 1   
    17    6    7 1   
    18    6   33 1   
    19    6   34 1   
    20    7    8 1   
    21    7   35 1   
    22    7   36 1   
    23    8    9 1   
    24    8   37 1   
    25    8   38 1   
    26    9   10 1   
    27    9   39 1   
    28    9   40 1   
    29   10   11 1   
    30   10   41 1   
    31   10   42 1   
    32   11   12 1   
    33   11   43 1   
    34   11   44 1   
    35   12   13 1   
    36   12   17 1   
    37   12   21 1   
    38   13   14 1   
    39   13   15 1   
    40   13   16 1   
    41   17   18 1   
    42   17   19 1   
    43   17   20 1   
    44   21   45 1   
@<TRIPOS>SUBSTRUCTURE
     1 H23         1 TEMP              0 ****  ****    0 ROOT
