@<TRIPOS>MOLECULE
H24
   46    48     1     0     0
SMALL
bcc


@<TRIPOS>ATOM
      1 C1           0.0000     0.0000     0.0000 c3         1 H24       0.247700
      2 O2           1.4400     0.0000     0.0000 os         1 H24      -0.321900
      3 C3           2.0800     0.0000     1.2140 ca         1 H24       0.152100
      4 C4           1.4360    -0.2040     2.4280 ca         1 H24      -0.175000
      5 C5           2.1470    -0.1720     3.6060 ca         1 H24      -0.046000
      6 C6           3.5030     0.0900     3.5890 ca         1 H24      -0.128000
      7 C7           4.1730     0.3040     2.3850 cp         1 H24      -0.017000
      8 C8           3.4430     0.2760     1.1990 ca         1 H24      -0.148000
      9 C9           5.6270     0.6320     2.3880 cp         1 H24      -0.001000
     10 C10          6.4630     0.0460     3.3270 ca         1 H24      -0.069000
     11 C11          7.7970     0.3750     3.3770 ca         1 H24      -0.074000
     12 C12          8.3110     1.3180     2.5170 ca         1 H24      -0.090000
     13 C13          7.5010     1.9330     1.5740 ca         1 H24      -0.129300
     14 C14          8.1400     2.9830     0.6520 c3         1 H24       0.187500
     15 C15          9.4470     2.4410     0.0630 c3         1 H24       0.009900
     16 C18          8.4760     4.2410     1.4610 c3         1 H24      -0.139400
     17 C19          7.2950     5.1410     1.6610 c          1 H24       0.631500
     18 O20          7.0310     5.6220     2.7480 o          1 H24      -0.555500
     19 N21          6.5100     5.3300     0.5730 n          1 H24      -0.078300
     20 C22          5.4460     6.3420     0.6590 c3         1 H24       0.053300
     21 C23          6.6410     4.4660    -0.5580 c2         1 H24       0.083800
     22 N24          6.1030     4.8160    -1.7300 nz         1 H24       0.204400
     23 N25          7.2570     3.3070    -0.4980 n2         1 H24      -0.423900
     24 C26          6.1540     1.5930     1.5260 ca         1 H24      -0.090000
     25 H1C1        -0.3610     0.8430     0.5770 h1         1 H24       0.000700
     26 H1C2        -0.3610     0.0780    -1.0180 h1         1 H24       0.000700
     27 H1C3        -0.3610    -0.9210     0.4420 h1         1 H24       0.000700
     28 H4           0.3730    -0.4100     2.4460 ha         1 H24       0.122000
     29 H8           3.9470     0.4400     0.2550 ha         1 H24       0.109000
     30 H5           1.6390    -0.3340     4.5490 ha         1 H24       0.112000
     31 H6           4.0560     0.1120     4.5200 ha         1 H24       0.114000
     32 H10          6.0670    -0.6980     4.0090 ha         1 H24       0.123000
     33 H26          5.5090     2.0660     0.7950 ha         1 H24       0.090000
     34 H11          8.4420    -0.0930     4.1120 ha         1 H24       0.118000
     35 H12          9.3640     1.5690     2.5650 ha         1 H24       0.113000
     36 H151        10.2100     2.4250     0.8320 hc         1 H24       0.027700
     37 H152         9.7680     3.0790    -0.7510 hc         1 H24       0.027700
     38 H153         9.2870     1.4360    -0.3070 hc         1 H24       0.027700
     39 H181         8.7800     3.9050     2.4450 hc         1 H24       0.075700
     40 H182         9.1980     4.8010     0.8780 hc         1 H24       0.075700
     41 H221         5.3930     6.7240     1.6720 h1         1 H24       0.036367
     42 H222         4.4980     5.8920     0.3930 h1         1 H24       0.036367
     43 H223         5.6640     7.1550    -0.0230 h1         1 H24       0.036367
     44 H241         6.4300     4.1970    -2.4450 hn         1 H24       0.222800
     45 H242         6.3690     5.7540    -1.9520 hn         1 H24       0.222800
     46 H243         5.1050     4.7580    -1.6700 hn         1 H24       0.222800
@<TRIPOS>BOND
     1     1     2 1   
     2     1    25 1   
     3     1    26 1   
     4     1    27 1   
     5     2     3 1   
     6     3     4 ar  
     7     3     8 ar  
     8     4     5 ar  
     9     4    28 1   
    10     5     6 ar  
    11     5    30 1   
    12     6     7 ar  
    13     6    31 1   
    14     7     8 ar  
    15     7     9 1   
    16     8    29 1   
    17     9    10 ar  
    18     9    24 ar  
    19    10    11 ar  
    20    10    32 1   
    21    11    12 ar  
    22    11    34 1   
    23    12    13 ar  
    24    12    35 1   
    25    13    14 1   
    26    13    24 ar  
    27    14    15 1   
    28    14    16 1   
    29    14    23 1   
    30    15    36 1   
    31    15    37 1   
    32    15    38 1   
    33    16    17 1   
    34    16    39 1   
    35    16    40 1   
    36    17    18 2   
    37    17    19 1   
    38    19    20 1   
    39    19    21 1   
    40    20    41 1   
    41    20    42 1   
    42    20    43 1   
    43    21    22 1   
    44    21    23 2   
    45    22    44 1   
    46    22    45 1   
    47    22    46 1   
    48    24    33 1   
@<TRIPOS>SUBSTRUCTURE
     1 H24         1 TEMP              0 ****  ****    0 ROOT
