@<TRIPOS>MOLECULE
molecule
   53    56     1     0     0
SMALL
bcc


@<TRIPOS>ATOM
      1 F3           0.0000     0.0000     0.0000 f          1 H25      -0.118900
      2 C17          1.3300     0.0000     0.0000 ca         1 H25       0.164900
      3 C11          2.0310     0.0000     1.1990 ca         1 H25      -0.129000
      4 C9           3.4280    -0.0390     1.2230 ca         1 H25       0.038600
      5 N1           4.1530     0.0120     2.4190 n          1 H25      -0.200200
      6 C21          4.7720    -1.0730     2.9390 cc         1 H25       0.012600
      7 C29          5.4930    -0.9950     4.1080 cd         1 H25      -0.246000
      8 C30          5.6040     0.2110     4.7820 cd         1 H25      -0.042000
      9 C23          4.9620     1.3180     4.2400 cc         1 H25      -0.253200
     10 C8           4.2290     1.1990     3.0650 c          1 H25       0.654700
     11 O25          3.6450     2.2120     2.5600 o          1 H25      -0.661500
     12 C26          4.0970    -0.0520    -0.0080 ca         1 H25      -0.120000
     13 C28          3.3670    -0.0590    -1.2070 ca         1 H25      -0.124000
     14 C16          1.9720    -0.0170    -1.2110 ca         1 H25       0.012600
     15 N15          1.2070     0.0440    -2.3880 ns         1 H25      -0.464100
     16 C14          0.4670     1.1740    -2.5940 c          1 H25       0.655100
     17 O27          0.4380     2.1120    -1.7770 o          1 H25      -0.583100
     18 C22         -0.3440     1.3230    -3.8570 c3         1 H25       0.088800
     19 N4          -0.3280     0.0660    -4.5960 n3         1 H25      -0.744600
     20 C31         -0.7130     0.2120    -6.0210 c3         1 H25       0.134800
     21 C34         -1.1300    -1.2130    -6.3830 c3         1 H25       0.127100
     22 O33         -2.1990    -1.2180    -7.3410 oh         1 H25      -0.594800
     23 C20         -1.2750    -0.8630    -3.9760 c3         1 H25       0.132800
     24 C6          -1.6830    -1.8040    -5.0890 c3         1 H25       0.105700
     25 N7          -1.1300    -3.1590    -4.9120 ns         1 H25      -0.553900
     26 C5          -1.6360    -3.9800    -3.9970 c          1 H25       0.691700
     27 O24         -2.5450    -3.6390    -3.2290 o          1 H25      -0.620100
     28 C2          -1.0850    -5.3690    -3.9070 cc         1 H25      -0.175700
     29 C12         -0.2010    -6.0600    -4.7630 cd         1 H25      -0.108000
     30 C19          0.0320    -7.3540    -4.2880 cd         1 H25      -0.134000
     31 S3          -1.6480    -6.2800    -2.5450 ss         1 H25       0.120200
     32 C10         -0.6920    -7.5740    -3.1430 cc         1 H25       0.018300
     33 Cl1         -0.6850    -9.0990    -2.1820 cl         1 H25      -0.100400
     34 H11          1.4840     0.0300     2.1330 ha         1 H25       0.161000
     35 H26          5.1800    -0.0840    -0.0350 ha         1 H25       0.144000
     36 H21          4.6970    -2.0240     2.4260 h4         1 H25       0.158000
     37 H29          5.9800    -1.8790     4.5010 ha         1 H25       0.148000
     38 H30          6.1740     0.2890     5.7000 ha         1 H25       0.142000
     39 H23          5.0210     2.2750     4.7440 ha         1 H25       0.167000
     40 H28          3.8990    -0.0710    -2.1510 ha         1 H25       0.139000
     41 H15          1.4230    -0.5600    -3.1570 hn         1 H25       0.345500
     42 H221         0.0830     2.1070    -4.4700 h1         1 H25       0.075200
     43 H222        -1.3650     1.5790    -3.6030 h1         1 H25       0.075200
     44 H201        -2.1390    -0.3250    -3.6040 h1         1 H25       0.071200
     45 H202        -0.7930    -1.4130    -3.1770 h1         1 H25       0.071200
     46 H311         0.1340     0.5280    -6.6180 h1         1 H25       0.060700
     47 H312        -1.5470     0.8950    -6.1260 h1         1 H25       0.060700
     48 H6          -2.7640    -1.8510    -5.1460 h1         1 H25       0.103700
     49 H34         -0.2810    -1.7870    -6.7360 h1         1 H25       0.047700
     50 H33         -1.8490    -1.3860    -8.2010 ho         1 H25       0.406000
     51 H7          -0.3690    -3.4630    -5.4870 hn         1 H25       0.319500
     52 H12          0.2510    -5.6390    -5.6530 ha         1 H25       0.152000
     53 H19          0.6740    -8.0840    -4.7670 ha         1 H25       0.168000
@<TRIPOS>BOND
     1     1     2 1
     2     2     3 ar
     3     2    14 ar
     4     3     4 ar
     5     4     5 1
     6     4    12 ar
     7     5     6 1
     8     5    10 1
     9     6     7 2
    10     7     8 1
    11     8     9 2
    12     9    10 1
    13    10    11 2
    14    12    13 ar
    15    13    14 ar
    16    14    15 1
    17    15    16 1
    18    16    17 2
    19    16    18 1
    20    18    19 1
    21    19    23 1
    22    19    20 1
    23    23    24 1
    24    21    20 1
    25    21    22 1
    26    21    24 1
    27    25    26 1
    28    25    24 1
    29    26    27 2
    30    26    28 1
    31    28    29 2
    32    28    31 1
    33    29    30 1
    34    30    32 2
    35    31    32 1
    36    32    33 1
    37     3    34 1
    38    12    35 1
    39     6    36 1
    40     7    37 1
    41     8    38 1
    42     9    39 1
    43    13    40 1
    44    15    41 1
    45    18    42 1
    46    18    43 1
    47    23    44 1
    48    23    45 1
    49    20    46 1
    50    20    47 1
    51    24    48 1
    52    21    49 1
    53    22    50 1
    54    25    51 1
    55    29    52 1
    56    30    53 1
@<TRIPOS>SUBSTRUCTURE
     1 H25         1 TEMP              0 ****  ****    0 ROOT
