@<TRIPOS>MOLECULE
H26
   30    31     1     0     0
SMALL
bcc


@<TRIPOS>ATOM
      1 OAD          0.0000     0.0000     0.0000 o          1 H26      -0.734500
      2 PAT          1.4800     0.0000     0.0000 p5         1 H26       0.442700
      3 OAE          2.0160     0.0000     1.5180 o          1 H26      -0.734500
      4 OAC          2.0160    -1.3160    -0.7590 o          1 H26      -0.734500
      5 CAJ          2.0880     1.4870    -0.8600 c3         1 H26      -0.040600
      6 CAH          1.4780     1.5520    -2.2620 c3         1 H26       0.232400
      7 OAN          1.9540     2.7180    -2.9350 os         1 H26      -0.451600
      8 CAG          1.4410     2.8740    -4.2610 c3         1 H26       0.194400
      9 CAI          2.0160     4.1490    -4.8830 c3         1 H26      -0.074700
     10 N9           1.4910     4.3080    -6.2410 na         1 H26       0.340100
     11 C8           2.0970     3.9040    -7.3920 cc         1 H26       0.222400
     12 N7           1.3490     4.2050    -8.4140 nd         1 H26      -0.550000
     13 C4           0.2990     4.8860    -6.5850 cc         1 H26      -0.159200
     14 C5           0.2240     4.8190    -7.9790 cd         1 H26       0.160800
     15 N3          -0.7030     5.4490    -5.8940 nc         1 H26      -0.471100
     16 C2          -1.7510     5.9330    -6.4980 cd         1 H26       0.273800
     17 N1          -1.8900     5.8970    -7.8480 ns         1 H26      -0.017400
     18 C6          -0.9210     5.3550    -8.6190 c          1 H26       0.537000
     19 O6          -1.0360     5.3160    -9.8330 o          1 H26      -0.696500
     20 HAJ          1.8010     2.3700    -0.3000 hc         1 H26      -0.002800
     21 HAJA         3.1670     1.4430    -0.9370 hc         1 H26      -0.002800
     22 HAH          0.3980     1.5960    -2.1850 h1         1 H26       0.000200
     23 HAHA         1.7640     0.6700    -2.8220 h1         1 H26       0.000200
     24 HAG          1.7260     2.0190    -4.8620 h1         1 H26      -0.008800
     25 HAGA         0.3610     2.9460    -4.2240 h1         1 H26      -0.008800
     26 HAI          3.0960     4.0780    -4.9190 h1         1 H26       0.043200
     27 HAIA         1.7310     5.0040    -4.2820 h1         1 H26       0.043200
     28 H8           3.0580     3.4070    -7.4490 h5         1 H26       0.027100
     29 H2          -2.5420     6.3740    -5.9020 h5         1 H26       0.001800
     30 HN1         -2.7100     6.2790    -8.2750 hn         1 H26       0.168500
@<TRIPOS>BOND
     1     1     2 1   
     2     2     3 1   
     3     2     4 1   
     4     2     5 1   
     5     5     6 1   
     6     5    20 1   
     7     5    21 1   
     8     6     7 1   
     9     6    22 1   
    10     6    23 1   
    11     7     8 1   
    12     8     9 1   
    13     8    24 1   
    14     8    25 1   
    15     9    10 1   
    16     9    26 1   
    17     9    27 1   
    18    10    11 1   
    19    10    13 1   
    20    11    12 2   
    21    11    28 1   
    22    12    14 1   
    23    13    14 2   
    24    13    15 1   
    25    14    18 1   
    26    15    16 2   
    27    16    17 1   
    28    16    29 1   
    29    17    18 1   
    30    17    30 1   
    31    18    19 2   
@<TRIPOS>SUBSTRUCTURE
     1 H26         1 TEMP              0 ****  ****    0 ROOT
