@<TRIPOS>MOLECULE
molecule
   49    54     1     0     0
SMALL
bcc


@<TRIPOS>ATOM
      1 C4           0.0000     0.0000     0.0000 ca         1 H28      -0.135000
      2 C5           1.3820     0.0000     0.0000 ca         1 H28      -0.095000
      3 C6           2.0750     0.0000     1.1960 ca         1 H28      -0.131300
      4 C7           3.5810    -0.0000     1.1950 c3         1 H28       0.030600
      5 C15          5.3400    -0.0670    -0.5220 c3         1 H28       0.023200
      6 C20          7.1930     2.0940    -2.9590 cx         1 H28      -0.126900
      7 C21          7.9000     3.2410    -2.2340 cx         1 H28      -0.126900
      8 C22          4.1260     1.4000     0.8680 c3         1 H28       0.138500
      9 C26          3.3850     3.3720     1.8130 ca         1 H28       0.058600
     10 C28          3.8950     4.2500     3.9920 ca         1 H28       0.067400
     11 C2          -0.0020     0.0120     2.3950 ca         1 H28      -0.016600
     12 C3          -0.6920     0.0060     1.1960 ca         1 H28      -0.093000
     13 C9           4.1270    -0.8620     0.0340 c3         1 H28      -0.220700
     14 C11          4.7800    -2.1040     0.6010 c          1 H28       0.709500
     15 O12          4.2010    -3.0120     1.1620 o          1 H28      -0.474100
     16 N13          6.0990    -2.0380     0.3850 ne         1 H28      -0.661100
     17 C14          6.5100    -0.9780    -0.2180 c2         1 H28       0.549200
     18 N17          5.4610     1.1590     0.2980 n3         1 H28      -0.649600
     19 C18          5.8970     2.2990    -0.5210 c3         1 H28       0.166800
     20 C19          7.2250     2.1270    -1.4300 cx         1 H28      -0.146700
     21 C23          3.2280     2.1310    -0.0890 c          1 H28       0.700500
     22 O24          2.9130     1.7720    -1.2050 o          1 H28      -0.613500
     23 N25          2.8410     3.2620     0.5310 ns         1 H28      -0.454100
     24 C27          3.2460     4.3660     2.7800 ca         1 H28      -0.154000
     25 Cl9          3.7140     5.4940     5.1900 cl         1 H28      -0.095400
     26 C30          4.6880     3.1480     4.2580 ca         1 H28      -0.145000
     27 C31          4.8310     2.1560     3.3040 ca         1 H28      -0.040000
     28 C32          4.1860     2.2680     2.0920 ca         1 H28      -0.128300
     29 C33          1.3830     0.0010     2.3950 ca         1 H28       0.160900
     30 F34          2.0590     0.0060     3.5660 f          1 H28      -0.122900
     31 H1          -0.5410    -0.0020    -0.9380 ha         1 H28       0.145000
     32 H2           1.9230    -0.0040    -0.9390 ha         1 H28       0.168000
     33 H3           3.9720    -0.3490     2.1440 hc         1 H28       0.101700
     34 H4           5.2440     0.1460    -1.5790 h1         1 H28       0.089700
     35 H6           6.2420     2.3440    -3.4130 hc         1 H28       0.077700
     36 H7           8.9830     3.2110    -2.2560 hc         1 H28       0.077700
     37 H8           7.3800     4.1910    -2.2440 hc         1 H28       0.077700
     38 H9          -1.7760     0.0060     1.1950 ha         1 H28       0.151000
     39 H10          3.3840    -1.0800    -0.7230 hc         1 H28       0.111700
     40 H11          7.3450    -1.0350    -0.9060 h4         1 H28       0.055800
     41 H13          5.8100     3.2120     0.0550 h1         1 H28       0.051700
     42 H14          5.2730     2.3690    -1.4040 h1         1 H28       0.051700
     43 H15          7.9070     1.4190    -0.9750 hc         1 H28       0.072700
     44 H16          2.2340     3.9440     0.1210 hn         1 H28       0.341500
     45 H17          2.6270     5.2310     2.5790 ha         1 H28       0.148000
     46 H18          5.1950     3.0610     5.2110 ha         1 H28       0.154000
     47 H19          5.4520     1.2920     3.5090 ha         1 H28       0.154000
     48 Cl1         -0.8720     0.0120     3.8980 cl         1 H28      -0.083400
     49 H5           7.8440     1.3640    -3.4240 hc         1 H28       0.077700
@<TRIPOS>BOND
     1    15    14 2
     2    48    11 1
     3    30    29 1
     4    14    16 1
     5    14    13 1
     6    11    29 ar
     7    11    12 ar
     8    16    17 2
     9    29     3 ar
    10    12     1 ar
    11     3     4 1
    12     3     2 ar
    13     1     2 ar
    14     4    13 1
    15     4     8 1
    16    13     5 1
    17    17     5 1
    18    27    26 ar
    19    27    28 ar
    20    26    10 ar
    21     5    18 1
    22     8    28 1
    23     8    18 1
    24     8    21 1
    25    28     9 ar
    26    18    19 1
    27    10    25 1
    28    10    24 ar
    29     7    20 1
    30     7     6 1
    31     9    24 ar
    32     9    23 1
    33    21    22 2
    34    21    23 1
    35    20    19 1
    36    20     6 1
    37     1    31 1
    38     2    32 1
    39     4    33 1
    40     5    34 1
    41     6    49 1
    42     6    35 1
    43     7    36 1
    44     7    37 1
    45    12    38 1
    46    13    39 1
    47    17    40 1
    48    19    41 1
    49    19    42 1
    50    20    43 1
    51    23    44 1
    52    24    45 1
    53    26    46 1
    54    27    47 1
@<TRIPOS>SUBSTRUCTURE
     1 H28         1 TEMP              0 ****  ****    0 ROOT
