@<TRIPOS>MOLECULE
H28
   49    54     1     0     0
SMALL
bcc


@<TRIPOS>ATOM
      1 C4           0.0000     0.0000     0.0000 ca         1 H28      -0.098000
      2 C5           1.3820     0.0000     0.0000 ca         1 H28      -0.087000
      3 C6           2.0750     0.0000     1.1960 ca         1 H28      -0.129300
      4 C7           3.5810    -0.0000     1.1950 c3         1 H28       0.064600
      5 C15          5.3400    -0.0670    -0.5220 c3         1 H28       0.001200
      6 C20          7.1930     2.0940    -2.9590 cx         1 H28      -0.068400
      7 C21          7.9000     3.2410    -2.2340 cx         1 H28      -0.068400
      8 C22          4.1260     1.4000     0.8680 c3         1 H28       0.088500
      9 C26          3.3850     3.3720     1.8130 ca         1 H28      -0.097400
     10 C28          3.8950     4.2500     3.9920 ca         1 H28      -0.000600
     11 C2          -0.0020     0.0120     2.3950 ca         1 H28      -0.077600
     12 C3          -0.6920     0.0060     1.1960 ca         1 H28      -0.072000
     13 C9           4.1270    -0.8620     0.0340 c3         1 H28      -0.197700
     14 C11          4.7800    -2.1040     0.6010 c          1 H28       0.707500
     15 O12          4.2010    -3.0120     1.1620 o          1 H28      -0.509100
     16 N13          6.0990    -2.0380     0.3850 ne         1 H28      -0.560100
     17 C14          6.5100    -0.9780    -0.2180 c2         1 H28       0.517200
     18 N17          5.4610     1.1590     0.2980 n3         1 H28      -0.467600
     19 C18          5.8970     2.2990    -0.5210 c3         1 H28       0.158800
     20 C19          7.2250     2.1270    -1.4300 cx         1 H28      -0.122700
     21 C23          3.2280     2.1310    -0.0890 c          1 H28       0.600500
     22 O24          2.9130     1.7720    -1.2050 o          1 H28      -0.654500
     23 N25          2.8410     3.2620     0.5310 ns         1 H28       0.003900
     24 C27          3.2460     4.3660     2.7800 ca         1 H28      -0.117000
     25 Cl9          3.7140     5.4940     5.1900 cl         1 H28      -0.014400
     26 C30          4.6880     3.1480     4.2580 ca         1 H28      -0.117000
     27 C31          4.8310     2.1560     3.3040 ca         1 H28      -0.003000
     28 C32          4.1860     2.2680     2.0920 ca         1 H28      -0.139300
     29 C33          1.3830     0.0010     2.3950 ca         1 H28       0.130900
     30 F34          2.0590     0.0060     3.5660 f          1 H28      -0.119900
     31 H1          -0.5410    -0.0020    -0.9380 ha         1 H28       0.113000
     32 H2           1.9230    -0.0040    -0.9390 ha         1 H28       0.151000
     33 H3           3.9720    -0.3490     2.1440 hc         1 H28       0.070700
     34 H4           5.2440     0.1460    -1.5790 h1         1 H28       0.067700
     35 H6           6.2420     2.3440    -3.4130 hc         1 H28       0.046950
     36 H7           8.9830     3.2110    -2.2560 hc         1 H28       0.046950
     37 H8           7.3800     4.1910    -2.2440 hc         1 H28       0.046950
     38 H9          -1.7760     0.0060     1.1950 ha         1 H28       0.118000
     39 H10          3.3840    -1.0800    -0.7230 hc         1 H28       0.089700
     40 H11          7.3450    -1.0350    -0.9060 h4         1 H28       0.003800
     41 H13          5.8100     3.2120     0.0550 h1         1 H28       0.023700
     42 H14          5.2730     2.3690    -1.4040 h1         1 H28       0.023700
     43 H15          7.9070     1.4190    -0.9750 hc         1 H28       0.048700
     44 H16          2.2340     3.9440     0.1210 hn         1 H28       0.179500
     45 H17          2.6270     5.2310     2.5790 ha         1 H28       0.119000
     46 H18          5.1950     3.0610     5.2110 ha         1 H28       0.123000
     47 H19          5.4520     1.2920     3.5090 ha         1 H28       0.118000
     48 Cl1         -0.8720     0.0120     3.8980 cl         1 H28       0.009600
     49 H5           7.8440     1.3640    -3.4240 hc         1 H28       0.046950
@<TRIPOS>BOND
     1     1     2 ar  
     2     1    12 ar  
     3     1    31 1   
     4     2     3 ar  
     5     2    32 1   
     6     3     4 1   
     7     3    29 ar  
     8     4     8 1   
     9     4    13 1   
    10     4    33 1   
    11     5    13 1   
    12     5    17 1   
    13     5    18 1   
    14     5    34 1   
    15     6     7 1   
    16     6    20 1   
    17     6    35 1   
    18     6    49 1   
    19     7    20 1   
    20     7    36 1   
    21     7    37 1   
    22     8    18 1   
    23     8    21 1   
    24     8    28 1   
    25     9    23 1   
    26     9    24 ar  
    27     9    28 ar  
    28    10    24 ar  
    29    10    25 1   
    30    10    26 ar  
    31    11    12 ar  
    32    11    29 ar  
    33    11    48 1   
    34    12    38 1   
    35    13    14 1   
    36    13    39 1   
    37    14    15 2   
    38    14    16 1   
    39    16    17 2   
    40    17    40 1   
    41    18    19 1   
    42    19    20 1   
    43    19    41 1   
    44    19    42 1   
    45    20    43 1   
    46    21    22 2   
    47    21    23 1   
    48    23    44 1   
    49    24    45 1   
    50    26    27 ar  
    51    26    46 1   
    52    27    28 ar  
    53    27    47 1   
    54    29    30 1   
@<TRIPOS>SUBSTRUCTURE
     1 H28         1 TEMP              0 ****  ****    0 ROOT
