@<TRIPOS>MOLECULE
molecule
   60    61     1     0     0
SMALL
bcc


@<TRIPOS>ATOM
      1 S1           0.0000     0.0000     0.0000 ss         1 H2A      -0.428200
      2 C2           1.8270     0.0000     0.0000 c3         1 H2A       0.059700
      3 C3           2.4640     0.0000     1.4080 c3         1 H2A      -0.086700
      4 C3'          2.1690     1.3050     2.1600 c3         1 H2A       0.131400
      5 C4           2.0500    -1.2220     2.2540 c3         1 H2A      -0.014300
      6 C4'          2.8460    -2.4140     1.7560 c          1 H2A       0.910600
      7 O4A          3.9750    -2.1400     1.2610 o          1 H2A      -0.811800
      8 O4B          2.2750    -3.5310     1.9020 o          1 H2A      -0.811800
      9 N5           0.6330    -1.4570     2.1760 nj         1 H2A      -0.435800
     10 C6          -0.2030    -1.5210     0.9860 cy         1 H2A       0.208800
     11 C7          -1.4180    -1.4730     1.9440 cy         1 H2A       0.024700
     12 C8          -0.3710    -1.3470     3.0750 c          1 H2A       0.703500
     13 O9          -0.3950    -1.1760     4.2720 o          1 H2A      -0.642500
     14 N10         -2.3330    -0.3210     1.8590 ns         1 H2A      -0.586900
     15 C11         -3.6000    -0.3330     2.4290 c          1 H2A       0.681100
     16 O12         -4.0790    -1.2800     3.0480 o          1 H2A      -0.586100
     17 C13         -4.3470     0.9660     2.1750 c3         1 H2A      -0.161400
     18 C14         -3.6430     2.1990     2.7390 c3         1 H2A      -0.072400
     19 C15         -3.3900     2.0880     4.2460 c3         1 H2A      -0.083400
     20 C16         -2.7100     3.3540     4.7860 c3         1 H2A      -0.065400
     21 C17         -2.4610     3.3250     6.2990 c3         1 H2A      -0.038300
     22 C18         -3.7250     3.1460     7.1640 c          1 H2A       0.926600
     23 O19         -4.7980     3.5800     6.6540 o          1 H2A      -0.816300
     24 O20         -3.5540     2.5620     8.2700 o          1 H2A      -0.816300
     25 N21         -1.4180     2.3780     6.6270 ns         1 H2A      -0.482900
     26 C22         -0.0770     2.7210     6.5920 c          1 H2A       0.623100
     27 O23          0.3640     3.8270     6.2900 o          1 H2A      -0.608100
     28 C24          0.8010     1.5570     6.9780 c3         1 H2A       0.001800
     29 N25          2.1200     1.6250     6.3040 nz         1 H2A      -0.798600
     30 O1           2.7130     2.3760     1.4170 os         1 H2A      -0.412900
     31 C1           2.5400     3.6290     1.9460 c          1 H2A       0.633100
     32 O2           1.9630     3.8890     2.9940 o          1 H2A      -0.546000
     33 C26          3.1660     4.6590     1.0550 c3         1 H2A      -0.154100
     34 H21A         2.1690    -0.8810    -0.5300 h1         1 H2A       0.083200
     35 H22          2.1690     0.8810    -0.5300 h1         1 H2A       0.083200
     36 H3           3.5370    -0.0590     1.2710 hc         1 H2A       0.118700
     37 H3'1         2.6250     1.2730     3.1420 h1         1 H2A       0.027200
     38 H3'2         1.0980     1.4360     2.2590 h1         1 H2A       0.027200
     39 H4           2.3110    -1.0310     3.2870 h1         1 H2A       0.043700
     40 H6          -0.1090    -2.4490     0.4350 h2         1 H2A       0.120700
     41 H7          -1.9360    -2.4230     1.9850 h1         1 H2A       0.109700
     42 H10         -2.0320     0.5000     1.3720 hn         1 H2A       0.334500
     43 H131        -5.3300     0.8930     2.6250 hc         1 H2A       0.062700
     44 H132        -4.4650     1.0940     1.1060 hc         1 H2A       0.062700
     45 H141        -2.6940     2.3230     2.2330 hc         1 H2A       0.037200
     46 H142        -4.2580     3.0710     2.5510 hc         1 H2A       0.037200
     47 H151        -2.7530     1.2330     4.4380 hc         1 H2A       0.059200
     48 H152        -4.3360     1.9480     4.7560 hc         1 H2A       0.059200
     49 H161        -1.7590     3.4770     4.2820 hc         1 H2A       0.039200
     50 H162        -3.3370     4.2080     4.5560 hc         1 H2A       0.039200
     51 H17         -2.0670     4.3020     6.5530 h1         1 H2A       0.057700
     52 H21         -1.6740     1.4470     6.8890 hn         1 H2A       0.335500
     53 H241         0.3080     0.6340     6.6990 hx         1 H2A       0.120700
     54 H242         0.9510     1.5680     8.0510 hx         1 H2A       0.120700
     55 H251         2.5620     0.7280     6.3450 hn         1 H2A       0.456800
     56 H252         2.6950     2.3020     6.7640 hn         1 H2A       0.456800
     57 H253         1.9920     1.8900     5.3470 hn         1 H2A       0.456800
     58 H261         2.6290     4.6970     0.1150 hc         1 H2A       0.069367
     59 H262         3.1200     5.6280     1.5370 hc         1 H2A       0.069367
     60 H263         4.2000     4.3960     0.8710 hc         1 H2A       0.069367
@<TRIPOS>BOND
     1     1     2 1
     2     1    10 1
     3     2     3 1
     4     2    34 1
     5     2    35 1
     6     3     4 1
     7     3     5 1
     8     3    36 1
     9     4    30 1
    10     4    37 1
    11     4    38 1
    12     5     6 1
    13     5     9 1
    14     5    39 1
    15     6     7 1
    16     6     8 1
    17     9    10 1
    18     9    12 1
    19    10    11 1
    20    10    40 1
    21    11    12 1
    22    11    14 1
    23    11    41 1
    24    12    13 2
    25    14    15 1
    26    14    42 1
    27    15    16 2
    28    15    17 1
    29    17    18 1
    30    17    43 1
    31    17    44 1
    32    18    19 1
    33    18    45 1
    34    18    46 1
    35    19    20 1
    36    19    47 1
    37    19    48 1
    38    20    21 1
    39    20    49 1
    40    20    50 1
    41    21    22 1
    42    21    25 1
    43    21    51 1
    44    22    23 1
    45    22    24 1
    46    25    26 1
    47    25    52 1
    48    26    27 2
    49    26    28 1
    50    28    29 1
    51    28    53 1
    52    28    54 1
    53    29    55 1
    54    29    56 1
    55    29    57 1
    56    30    31 1
    57    31    32 2
    58    31    33 1
    59    33    58 1
    60    33    59 1
    61    33    60 1
@<TRIPOS>SUBSTRUCTURE
     1 H2A         1 TEMP              0 ****  ****    0 ROOT
