@<TRIPOS>MOLECULE
molecule
   31    32     1     0     0
SMALL
bcc


@<TRIPOS>ATOM
      1 N1           0.0000     0.0000     0.0000 nc         1 H2B      -0.888000
      2 C2           1.3350     0.0000     0.0000 cc         1 H2B       0.800200
      3 N2           1.9720     0.0000    -1.2150 nz         1 H2B      -0.734600
      4 N3           2.0860     0.0000     1.0850 nd         1 H2B      -0.726100
      5 C4           1.5540    -0.0170     2.3150 c          1 H2B       0.646200
      6 O4           2.2530    -0.0120     3.3120 o          1 H2B      -0.388100
      7 C4A          0.0650    -0.0400     2.4070 cd         1 H2B       0.181000
      8 C8A         -0.6810    -0.0070     1.1210 cd         1 H2B       0.695900
      9 N5          -0.5570    -0.0820     3.5290 n2         1 H2B      -0.377900
     10 N8          -2.0470     0.0190     1.1670 nu         1 H2B      -0.795200
     11 C6          -2.0170    -0.1420     3.6030 c3         1 H2B       0.066500
     12 C7          -2.6490     0.5610     2.4000 c3         1 H2B       0.187800
     13 C9          -2.4850     0.5400     4.8890 c3         1 H2B       0.169100
     14 O9          -3.9100     0.4720     4.9730 oh         1 H2B      -0.593800
     15 C10         -1.8690    -0.1680     6.0960 c3         1 H2B       0.139100
     16 C11         -2.3380     0.5140     7.3830 c3         1 H2B      -0.124100
     17 O10         -0.4440    -0.0990     6.0120 oh         1 H2B      -0.592800
     18 H22          2.2070    -0.9390    -1.4680 hn         1 H2B       0.481800
     19 H21          1.3660     0.3910    -1.9090 hn         1 H2B       0.481800
     20 H8          -2.6080    -0.3100     0.4060 hn         1 H2B       0.485800
     21 H6          -2.3290    -1.1800     3.6110 h1         1 H2B       0.119700
     22 H71         -3.7160     0.3790     2.3920 h1         1 H2B       0.091200
     23 H72         -2.4560     1.6250     2.4590 h1         1 H2B       0.091200
     24 H9          -2.1740     1.5770     4.8810 h1         1 H2B       0.061700
     25 H9O1        -4.2680     1.3440     4.9530 ho         1 H2B       0.421000
     26 H10         -2.1800    -1.2060     6.1030 h1         1 H2B       0.046700
     27 H113        -2.0730     1.5640     7.3520 hc         1 H2B       0.052033
     28 H112        -3.4130     0.4150     7.4730 hc         1 H2B       0.052033
     29 H111        -1.8590     0.0460     8.2350 hc         1 H2B       0.052033
     30 H1O1        -0.0640    -0.7030     6.6290 ho         1 H2B       0.417000
     31 H23          2.8150     0.5350    -1.1490 hn         1 H2B       0.481800
@<TRIPOS>BOND
     1     1     2 1
     2     1     8 2
     3     2     3 1
     4     2     4 2
     5     3    18 1
     6     3    19 1
     7     4     5 1
     8     5     6 2
     9     5     7 1
    10     7     8 1
    11     7     9 2
    12     8    10 1
    13     9    11 1
    14    10    12 1
    15    10    20 1
    16    11    12 1
    17    11    13 1
    18    11    21 1
    19    12    22 1
    20    12    23 1
    21    13    14 1
    22    13    15 1
    23    13    24 1
    24    14    25 1
    25    15    16 1
    26    15    17 1
    27    15    26 1
    28    16    27 1
    29    16    28 1
    30    16    29 1
    31    17    30 1
    32    31     3 1
@<TRIPOS>SUBSTRUCTURE
     1 H2B         1 TEMP              0 ****  ****    0 ROOT
