@<TRIPOS>MOLECULE
H2B
   31    32     1     0     0
SMALL
bcc


@<TRIPOS>ATOM
      1 N1           0.0000     0.0000     0.0000 nc         1 H2B      -0.776000
      2 C2           1.3350     0.0000     0.0000 cc         1 H2B       0.471200
      3 N2           1.9720     0.0000    -1.2150 nz         1 H2B       0.189400
      4 N3           2.0860     0.0000     1.0850 nd         1 H2B      -0.578100
      5 C4           1.5540    -0.0170     2.3150 c          1 H2B       0.622200
      6 O4           2.2530    -0.0120     3.3120 o          1 H2B      -0.425100
      7 C4A          0.0650    -0.0400     2.4070 cd         1 H2B       0.115000
      8 C8A         -0.6810    -0.0070     1.1210 cd         1 H2B       0.502900
      9 N5          -0.5570    -0.0820     3.5290 n2         1 H2B      -0.243900
     10 N8          -2.0470     0.0190     1.1670 nu         1 H2B      -0.327200
     11 C6          -2.0170    -0.1420     3.6030 c3         1 H2B       0.054500
     12 C7          -2.6490     0.5610     2.4000 c3         1 H2B       0.109800
     13 C9          -2.4850     0.5400     4.8890 c3         1 H2B       0.199100
     14 O9          -3.9100     0.4720     4.9730 oh         1 H2B      -0.574800
     15 C10         -1.8690    -0.1680     6.0960 c3         1 H2B       0.173100
     16 C11         -2.3380     0.5140     7.3830 c3         1 H2B      -0.029100
     17 O10         -0.4440    -0.0990     6.0120 oh         1 H2B      -0.577800
     18 H22          2.2070    -0.9390    -1.4680 hn         1 H2B       0.225133
     19 H21          1.3660     0.3910    -1.9090 hn         1 H2B       0.225133
     20 H8          -2.6080    -0.3100     0.4060 hn         1 H2B       0.320800
     21 H6          -2.3290    -1.1800     3.6110 h1         1 H2B       0.078700
     22 H71         -3.7160     0.3790     2.3920 h1         1 H2B       0.059200
     23 H72         -2.4560     1.6250     2.4590 h1         1 H2B       0.059200
     24 H9          -2.1740     1.5770     4.8810 h1         1 H2B       0.023700
     25 H9O1        -4.2680     1.3440     4.9530 ho         1 H2B       0.406000
     26 H10         -2.1800    -1.2060     6.1030 h1         1 H2B       0.012700
     27 H113        -2.0730     1.5640     7.3520 hc         1 H2B       0.018033
     28 H112        -3.4130     0.4150     7.4730 hc         1 H2B       0.018033
     29 H111        -1.8590     0.0460     8.2350 hc         1 H2B       0.018033
     30 H1O1        -0.0640    -0.7030     6.6290 ho         1 H2B       0.404000
     31 H23          2.8150     0.5350    -1.1490 hn         1 H2B       0.225133
@<TRIPOS>BOND
     1     1     2 1   
     2     1     8 2   
     3     2     3 1   
     4     2     4 2   
     5     3    18 1   
     6     3    19 1   
     7     3    31 1   
     8     4     5 1   
     9     5     6 2   
    10     5     7 1   
    11     7     8 1   
    12     7     9 2   
    13     8    10 1   
    14     9    11 1   
    15    10    12 1   
    16    10    20 1   
    17    11    12 1   
    18    11    13 1   
    19    11    21 1   
    20    12    22 1   
    21    12    23 1   
    22    13    14 1   
    23    13    15 1   
    24    13    24 1   
    25    14    25 1   
    26    15    16 1   
    27    15    17 1   
    28    15    26 1   
    29    16    27 1   
    30    16    28 1   
    31    16    29 1   
    32    17    30 1   
@<TRIPOS>SUBSTRUCTURE
     1 H2B         1 TEMP              0 ****  ****    0 ROOT
