@<TRIPOS>MOLECULE
H2K
   40    42     1     0     0
SMALL
bcc


@<TRIPOS>ATOM
      1 N6          -1.2940     0.0170    -2.2180 n1         1 H2K      -0.359800
      2 C15         -0.7170     0.0000    -1.2400 cg         1 H2K       0.125800
      3 C13          0.0000     0.0000     0.0000 ca         1 H2K       0.338000
      4 N4           1.3330     0.0000     0.0000 nb         1 H2K      -0.486000
      5 C12          1.9910     0.0000     1.1400 ca         1 H2K       0.232900
      6 C14         -0.6970     0.0040     1.2090 ca         1 H2K       0.359900
      7 N5          -0.0350     0.0050     2.3510 nb         1 H2K      -0.526000
      8 C11          1.2920    -0.0000     2.3500 ca         1 H2K       0.275900
      9 N3           1.9880    -0.0010     3.5530 ns         1 H2K      -0.112400
     10 C10          1.3190     0.1090     4.7180 c          1 H2K       0.534100
     11 O2           0.1040     0.1170     4.7230 o          1 H2K      -0.622100
     12 N2           1.9980     0.2070     5.8790 ns         1 H2K      -0.026100
     13 C9           1.3080     0.1970     7.0980 ca         1 H2K      -0.099400
     14 C16          0.0250    -0.3260     7.1650 ca         1 H2K      -0.088000
     15 C1          -0.6550    -0.3350     8.3700 ca         1 H2K      -0.049600
     16 Cl          -2.2600    -0.9900     8.4540 cl         1 H2K      -0.021400
     17 C4           1.9090     0.7070     8.2450 ca         1 H2K       0.112100
     18 C3           1.2230     0.6960     9.4480 ca         1 H2K      -0.186000
     19 C2          -0.0570     0.1780     9.5090 ca         1 H2K      -0.074000
     20 O1           3.1700     1.2160     8.1850 os         1 H2K      -0.304900
     21 C5           3.7110     1.7520     9.3940 c3         1 H2K       0.164100
     22 C8           4.3140     0.6260    10.2550 c3         1 H2K       0.107800
     23 N1           5.7600     0.9090    10.3880 n7         1 H2K      -0.577200
     24 C7           5.9040     2.3770    10.2090 c3         1 H2K       0.144800
     25 C6           4.8940     2.6970     9.0790 c3         1 H2K      -0.025400
     26 H13          3.0740    -0.0020     1.1410 h4         1 H2K      -0.005900
     27 H14         -1.7800     0.0090     1.2100 h4         1 H2K       0.000100
     28 H12          2.9830    -0.1120     3.5560 hn         1 H2K       0.169500
     29 H11          2.9980     0.2610     5.8700 hn         1 H2K       0.170500
     30 H15         -0.4190    -0.7850     6.2900 ha         1 H2K       0.175000
     31 H2           1.6890     1.0940    10.3410 ha         1 H2K       0.125000
     32 H1          -0.5930     0.1690    10.4500 ha         1 H2K       0.113000
     33 H3           2.9480     2.2820     9.9520 h1         1 H2K       0.028700
     34 H9           4.1690    -0.3290     9.7650 h1         1 H2K       0.022200
     35 H10          3.8480     0.6210    11.2330 h1         1 H2K       0.022200
     36 H8           6.0660     0.6530    11.3060 hn         1 H2K       0.254800
     37 H6           6.9120     2.6250     9.9010 h1         1 H2K       0.013200
     38 H7           5.6350     2.8990    11.1190 h1         1 H2K       0.013200
     39 H4           4.5790     3.7320     9.1300 hc         1 H2K       0.031200
     40 H5           5.3190     2.4660     8.1100 hc         1 H2K       0.031200
@<TRIPOS>BOND
     1     1     2 3   
     2     2     3 1   
     3     3     4 ar  
     4     3     6 ar  
     5     4     5 ar  
     6     5     8 ar  
     7     5    26 1   
     8     6     7 ar  
     9     6    27 1   
    10     7     8 ar  
    11     8     9 1   
    12     9    10 1   
    13     9    28 1   
    14    10    11 2   
    15    10    12 1   
    16    12    13 1   
    17    12    29 1   
    18    13    14 ar  
    19    13    17 ar  
    20    14    15 ar  
    21    14    30 1   
    22    15    16 1   
    23    15    19 ar  
    24    17    18 ar  
    25    17    20 1   
    26    18    19 ar  
    27    18    31 1   
    28    19    32 1   
    29    20    21 1   
    30    21    22 1   
    31    21    25 1   
    32    21    33 1   
    33    22    23 1   
    34    22    34 1   
    35    22    35 1   
    36    23    24 1   
    37    23    36 1   
    38    24    25 1   
    39    24    37 1   
    40    24    38 1   
    41    25    39 1   
    42    25    40 1   
@<TRIPOS>SUBSTRUCTURE
     1 H2K         1 TEMP              0 ****  ****    0 ROOT
