@<TRIPOS>MOLECULE
H2S
    3     2     1     0     0
SMALL
bcc


@<TRIPOS>ATOM
      1 S           0.0060   -0.0130   -0.1000 sh        1 H2S     -0.440600
      2 HS1         1.2940    0.0040    0.1990 hs        1 H2S      0.219800
      3 HS2        -0.4160    0.0090    1.1530 hs        1 H2S      0.219800
@<TRIPOS>BOND
     1    1    2 1   
     2    1    3 1   
@<TRIPOS>SUBSTRUCTURE
     1 H2S         1 TEMP              0 ****  ****    0 ROOT
