@<TRIPOS>MOLECULE
molecule
    3     2     1     0     0
SMALL
bcc


@<TRIPOS>ATOM
      1 S            0.0000     0.0000     0.0000 sh         1 H2S      -0.479600
      2 HS1          1.3270     0.0000     0.0000 hs         1 H2S       0.239800
      3 HS2         -0.4430     0.0000     1.2520 hs         1 H2S       0.239800
@<TRIPOS>BOND
     1     1     2 1
     2     1     3 1
@<TRIPOS>SUBSTRUCTURE
     1 H2S         1 TEMP              0 ****  ****    0 ROOT
