@<TRIPOS>MOLECULE
H2V
   50    49     1     0     0
SMALL
bcc


@<TRIPOS>ATOM
      1 C           1.0310    0.7840   -1.0590 c3        1 H2V     -0.078600
      2 N           4.6790   -0.6890    1.6040 n         1 H2V     -0.543900
      3 O           3.8140   -1.6850   -1.1070 os        1 H2V     -0.583200
      4 P           5.3350   -1.5410   -1.8830 p5        1 H2V      1.328900
      5 S          10.1750   -3.7540   -1.8700 ss        1 H2V     -0.194700
      6 C1          2.0670   -0.1310   -0.4140 c3        1 H2V     -0.109000
      7 N1          7.5210   -2.4900    0.8250 n         1 H2V     -0.512900
      8 O1          5.9020   -0.4620   -0.9800 o         1 H2V     -0.910167
      9 C2          1.3590   -1.1960    0.4040 c3        1 H2V     -0.078600
     10 N2         13.3920   -5.9480   -2.3830 n3        1 H2V     -0.891800
     11 O2          6.0080   -2.8550   -1.5840 o         1 H2V     -0.910167
     12 C3          2.8520   -0.8140   -1.5640 c3        1 H2V      0.219400
     13 O3          5.0040   -1.1770   -3.2920 o         1 H2V     -0.910167
     14 C4          2.9470    0.7480    0.5020 c3        1 H2V      0.128100
     15 O4          3.9400    1.4550   -0.1910 oh        1 H2V     -0.652800
     16 C5          3.4860   -0.0400    1.7130 c         1 H2V      0.637100
     17 O5          2.8300   -0.0110    2.7920 o         1 H2V     -0.729100
     18 C6          5.1820   -1.5440    2.6380 c3        1 H2V      0.108000
     19 O6          7.6810   -3.8660    2.6730 o         1 H2V     -0.705100
     20 C7          5.5040   -2.9710    2.1820 c3        1 H2V     -0.178400
     21 O7         11.2670   -5.7660   -0.5100 o         1 H2V     -0.575100
     22 C8          6.9830   -3.1620    1.8970 c         1 H2V      0.650100
     23 C9          8.8160   -2.8440    0.3110 c3        1 H2V      0.108000
     24 C10         8.7750   -3.8930   -0.7990 c3        1 H2V     -0.080300
     25 C11        11.3270   -4.8950   -1.3930 c         1 H2V      0.485700
     26 C12        12.5860   -4.7610   -2.2480 c3        1 H2V      0.049800
     27 H           0.3410    1.2030   -0.2880 hc        1 H2V      0.023700
     28 HA          1.5460    1.6270   -1.5790 hc        1 H2V      0.023700
     29 HB          0.4240    0.2180   -1.8060 hc        1 H2V      0.023700
     30 HN          5.1270   -0.7410    0.6830 hn        1 H2V      0.401500
     31 HN1         6.8750   -2.1220    0.1150 hn        1 H2V      0.397500
     32 H2          2.0980   -1.9810    0.7030 hc        1 H2V      0.023700
     33 H2A         0.5560   -1.6770   -0.2040 hc        1 H2V      0.023700
     34 H2B         0.9040   -0.7540    1.3230 hc        1 H2V      0.023700
     35 HN2        12.8780   -6.6560   -2.8750 hn        1 H2V      0.344300
     36 H3          3.3050   -0.0200   -2.2240 h1        1 H2V      0.007700
     37 H3A         2.0800   -1.3800   -2.1690 h1        1 H2V      0.007700
     38 H4          2.2950    1.5580    0.9510 h1        1 H2V      0.044700
     39 HO4         4.5660    0.8190   -0.6170 ho        1 H2V      0.489000
     40 H6          6.1200   -1.0780    3.0600 h1        1 H2V      0.036200
     41 H6A         4.4270   -1.6010    3.4750 h1        1 H2V      0.036200
     42 H7          4.9180   -3.2490    1.2620 hc        1 H2V      0.076700
     43 H7A         5.2260   -3.6820    3.0020 hc        1 H2V      0.076700
     44 H9          9.2700   -1.8990   -0.1070 h1        1 H2V      0.045700
     45 H9A         9.4650   -3.2170    1.1530 h1        1 H2V      0.045700
     46 H10         7.8690   -3.7110   -1.4670 h1        1 H2V      0.144200
     47 H10A        8.6980   -4.9200   -0.3740 h1        1 H2V      0.144200
     48 H24        13.6120   -6.3120   -1.4730 hn        1 H2V      0.344300
     49 H12        13.2240   -3.9620   -1.7710 h1        1 H2V      0.073700
     50 H26        12.2950   -4.4040   -3.2760 h1        1 H2V      0.073700
@<TRIPOS>BOND
     1    1    6 1   
     2    1   27 1   
     3    1   28 1   
     4    1   29 1   
     5    2   16 1   
     6    2   18 1   
     7    2   30 1   
     8    3    4 1   
     9    3   12 1   
    10    4    8 1   
    11    4   11 1   
    12    4   13 1   
    13    5   24 1   
    14    5   25 1   
    15    6    9 1   
    16    6   12 1   
    17    6   14 1   
    18    7   22 1   
    19    7   23 1   
    20    7   31 1   
    21    9   32 1   
    22    9   33 1   
    23    9   34 1   
    24   10   26 1   
    25   10   35 1   
    26   10   48 1   
    27   12   36 1   
    28   12   37 1   
    29   14   15 1   
    30   14   16 1   
    31   14   38 1   
    32   15   39 1   
    33   16   17 2   
    34   18   20 1   
    35   18   40 1   
    36   18   41 1   
    37   19   22 2   
    38   20   22 1   
    39   20   42 1   
    40   20   43 1   
    41   21   25 2   
    42   23   24 1   
    43   23   44 1   
    44   23   45 1   
    45   24   46 1   
    46   24   47 1   
    47   25   26 1   
    48   26   49 1   
    49   26   50 1   
@<TRIPOS>SUBSTRUCTURE
     1 H2V         1 TEMP              0 ****  ****    0 ROOT
