@<TRIPOS>MOLECULE
molecule
   51    50     1     0     0
SMALL
bcc


@<TRIPOS>ATOM
      1 C            0.0000     0.0000     0.0000 c3         1 H2V      -0.074600
      2 N            4.2340    -1.0670     1.0310 ns         1 H2V      -0.603900
      3 O            1.5630     1.2510    -2.0680 os         1 H2V      -0.595200
      4 P            1.9060     2.4200    -3.1190 p5         1 H2V       1.203900
      5 S           12.2090    -4.8880    -0.0970 ss         1 H2V      -0.284700
      6 C1           1.5300     0.0000     0.0000 c3         1 H2V      -0.069000
      7 N1           8.4130    -3.5180     0.2530 ns         1 H2V      -0.596900
      8 O1           1.2410     3.8000    -2.6230 o          1 H2V      -0.720500
      9 C2           2.0400    -1.2480    -0.7220 c3         1 H2V      -0.074600
     10 N2          13.9480    -8.2930    -1.4140 nz         1 H2V      -0.807600
     11 O2           1.3190     2.0320    -4.5660 o          1 H2V      -0.720500
     12 C3           2.0390     1.2500    -0.7210 c3         1 H2V       0.228400
     13 O3           3.3740     2.5850    -3.2110 o          1 H2V      -0.720500
     14 C4           2.0390     0.0000     1.4430 c3         1 H2V       0.087100
     15 O4           1.5500     1.1580     2.1210 oh         1 H2V      -0.556800
     16 C5           3.5470     0.0170     1.4420 c          1 H2V       0.639100
     17 O5           4.1420     1.0070     1.8130 o          1 H2V      -0.578100
     18 C6           5.6960    -1.0820     1.1100 c3         1 H2V       0.128000
     19 O6           8.3200    -1.4700     1.1010 o          1 H2V      -0.592100
     20 C7           6.2220    -2.4180     0.5830 c3         1 H2V      -0.175400
     21 O7          11.6060    -7.1580    -1.0770 o          1 H2V      -0.575100
     22 C8           7.7270    -2.4340     0.6650 c          1 H2V       0.663100
     23 C9           9.8760    -3.5330     0.3320 c3         1 H2V       0.125000
     24 C10         10.4020    -4.8700    -0.1940 c3         1 H2V      -0.010300
     25 C11         12.5250    -6.4470    -0.7270 c          1 H2V       0.533700
     26 C12         13.9450    -6.9370    -0.8500 c3         1 H2V      -0.023200
     27 H           -0.3610    -0.1740    -1.0060 hc         1 H2V       0.034033
     28 HA          -0.3610    -0.7840     0.6540 hc         1 H2V       0.034033
     29 HB          -0.3610     0.9590     0.3520 hc         1 H2V       0.034033
     30 HN           3.7420    -1.8770     0.7080 hn         1 H2V       0.312500
     31 HN1          7.9240    -4.3130    -0.1070 hn         1 H2V       0.311500
     32 H2           3.0560    -1.0800    -1.0590 hc         1 H2V       0.034033
     33 H2A          1.4060    -1.4570    -1.5750 hc         1 H2V       0.034033
     34 H2B          2.0200    -2.0920    -0.0420 hc         1 H2V       0.034033
     35 HN2         13.4350    -8.9070    -0.8120 hn         1 H2V       0.376467
     36 H3           3.1220     1.2510    -0.7210 h1         1 H2V       0.041200
     37 H3A          1.6770     2.1340    -0.2100 h1         1 H2V       0.041200
     38 H4           1.6880    -0.8910     1.9500 h1         1 H2V       0.021700
     39 HO4          1.3270     0.9320     3.0080 ho         1 H2V       0.386000
     40 H6           6.0030    -0.9550     2.1410 h1         1 H2V       0.069700
     41 H6A          6.0980    -0.2740     0.5110 h1         1 H2V       0.069700
     42 H7           5.8190    -3.2260     1.1820 hc         1 H2V       0.062700
     43 H7A          5.9140    -2.5460    -0.4480 hc         1 H2V       0.062700
     44 H9          10.1830    -3.4050     1.3630 h1         1 H2V       0.063200
     45 H9A         10.2780    -2.7250    -0.2670 h1         1 H2V       0.063200
     46 H10         10.0000    -5.6780     0.4050 h1         1 H2V       0.074200
     47 H10A        10.0950    -4.9980    -1.2250 h1         1 H2V       0.074200
     48 H24         14.8910    -8.6180    -1.4960 hn         1 H2V       0.376467
     49 H12         14.5010    -6.2740    -1.5010 hx         1 H2V       0.091700
     50 H26         14.4070    -6.9530     0.1300 hx         1 H2V       0.091700
     51 H23         13.5200    -8.2790    -2.3180 hn         1 H2V       0.376467
@<TRIPOS>BOND
     1     1    27 1
     2     1    28 1
     3     1    29 1
     4     2    18 1
     5     2    30 1
     6     3    12 1
     7     4     3 1
     8     4     8 1
     9     4    13 1
    10     6     1 1
    11     6     9 1
    12     6    14 1
    13     7    23 1
    14     7    31 1
    15     9    32 1
    16     9    33 1
    17     9    34 1
    18    10    35 1
    19    11     4 1
    20    12     6 1
    21    12    36 1
    22    12    37 1
    23    14    15 1
    24    14    38 1
    25    15    39 1
    26    16     2 1
    27    16    14 1
    28    17    16 2
    29    18    20 1
    30    18    40 1
    31    18    41 1
    32    19    22 2
    33    20    22 1
    34    20    42 1
    35    20    43 1
    36    21    25 2
    37    22     7 1
    38    23    44 1
    39    23    45 1
    40    24     5 1
    41    24    23 1
    42    24    46 1
    43    24    47 1
    44    25     5 1
    45    25    26 1
    46    26    10 1
    47    10    48 1
    48    26    49 1
    49    26    50 1
    50    51    10 1
@<TRIPOS>SUBSTRUCTURE
     1 H2V         1 TEMP              0 ****  ****    0 ROOT
