@<TRIPOS>MOLECULE
molecule
   28    30     1     0     0
SMALL
bcc


@<TRIPOS>ATOM
      1 CAF          0.0000     0.0000     0.0000 cc         1 H2W      -0.186200
      2 CAE          1.4600     0.0000     0.0000 ca         1 H2W      -0.034800
      3 CAO          2.1990     0.0000     1.1890 ca         1 H2W       0.120900
      4 FAP          1.5660    -0.0010     2.3830 f          1 H2W      -0.137900
      5 CAQ          3.5760    -0.0010     1.1320 ca         1 H2W      -0.135000
      6 CAR          4.2360    -0.0010    -0.0910 ca         1 H2W      -0.127000
      7 CAS          3.5290    -0.0000    -1.2730 ca         1 H2W      -0.070000
      8 CAD          2.1350    -0.0010    -1.2440 ca         1 H2W      -0.136600
      9 CAB          1.3360    -0.0010    -2.4740 c          1 H2W       0.712100
     10 OAC          1.8830    -0.0020    -3.5620 o          1 H2W      -0.633500
     11 NAA         -0.0090    -0.0010    -2.3900 ns         1 H2W      -0.436100
     12 CAG         -0.6660    -0.0010    -1.1820 cd         1 H2W       0.100400
     13 CAH         -2.1440    -0.0010    -1.1720 ca         1 H2W      -0.067800
     14 CAI         -2.8540    -0.0010    -2.3740 ca         1 H2W      -0.104500
     15 CAJ         -4.2330    -0.0010    -2.3580 ca         1 H2W      -0.116000
     16 CAK         -4.9140     0.0000    -1.1520 ca         1 H2W       0.037400
     17 Cl          -6.6490     0.0000    -1.1400 cl         1 H2W      -0.098400
     18 CAM         -4.2150     0.0000     0.0440 ca         1 H2W      -0.116000
     19 CAN         -2.8370    -0.0060     0.0400 ca         1 H2W      -0.104500
     20 HAF         -0.5460    -0.0000     0.9350 ha         1 H2W       0.161000
     21 HAQ          4.1490    -0.0020     2.0510 ha         1 H2W       0.147000
     22 HAR          5.3190    -0.0020    -0.1150 ha         1 H2W       0.142000
     23 HAS          4.0540    -0.0000    -2.2210 ha         1 H2W       0.160000
     24 HAA         -0.5470    -0.0020    -3.2330 hn         1 H2W       0.338500
     25 HAI         -2.3220    -0.0020    -3.3180 ha         1 H2W       0.141500
     26 HAN         -2.2910    -0.0060     0.9760 ha         1 H2W       0.141500
     27 HAJ         -4.7840    -0.0010    -3.2900 ha         1 H2W       0.150500
     28 HAM         -4.7530    -0.0020     0.9840 ha         1 H2W       0.150500
@<TRIPOS>BOND
     1     1     2 1
     2     1    12 2
     3     2     3 ar
     4     2     8 ar
     5     3     4 1
     6     3     5 ar
     7     5     6 ar
     8     6     7 ar
     9     7     8 ar
    10     8     9 1
    11     9    10 2
    12     9    11 1
    13    11    12 1
    14    12    13 1
    15    13    14 ar
    16    13    19 ar
    17    14    15 ar
    18    15    16 ar
    19    16    17 1
    20    16    18 ar
    21    18    19 ar
    22     1    20 1
    23     5    21 1
    24     6    22 1
    25     7    23 1
    26    11    24 1
    27    14    25 1
    28    19    26 1
    29    15    27 1
    30    18    28 1
@<TRIPOS>SUBSTRUCTURE
     1 H2W         1 TEMP              0 ****  ****    0 ROOT
