@<TRIPOS>MOLECULE
H2W
   28    30     1     0     0
SMALL
bcc


@<TRIPOS>ATOM
      1 CAF          0.0000     0.0000     0.0000 cc         1 H2W      -0.162200
      2 CAE          1.4600     0.0000     0.0000 ca         1 H2W      -0.025800
      3 CAO          2.1990     0.0000     1.1890 ca         1 H2W       0.092900
      4 FAP          1.5660    -0.0010     2.3830 f          1 H2W      -0.125900
      5 CAQ          3.5760    -0.0010     1.1320 ca         1 H2W      -0.100000
      6 CAR          4.2360    -0.0010    -0.0910 ca         1 H2W      -0.102000
      7 CAS          3.5290    -0.0000    -1.2730 ca         1 H2W      -0.034000
      8 CAD          2.1350    -0.0010    -1.2440 ca         1 H2W      -0.145600
      9 CAB          1.3360    -0.0010    -2.4740 c          1 H2W       0.613100
     10 OAC          1.8830    -0.0020    -3.5620 o          1 H2W      -0.679500
     11 NAA         -0.0090    -0.0010    -2.3900 ns         1 H2W       0.029900
     12 CAG         -0.6660    -0.0010    -1.1820 cd         1 H2W      -0.054600
     13 CAH         -2.1440    -0.0010    -1.1720 ca         1 H2W      -0.064800
     14 CAI         -2.8540    -0.0010    -2.3740 ca         1 H2W      -0.082500
     15 CAJ         -4.2330    -0.0010    -2.3580 ca         1 H2W      -0.090500
     16 CAK         -4.9140     0.0000    -1.1520 ca         1 H2W      -0.029600
     17 Cl          -6.6490     0.0000    -1.1400 cl         1 H2W      -0.015400
     18 CAM         -4.2150     0.0000     0.0440 ca         1 H2W      -0.090500
     19 CAN         -2.8370    -0.0060     0.0400 ca         1 H2W      -0.082500
     20 HAF         -0.5460    -0.0000     0.9350 ha         1 H2W       0.141000
     21 HAQ          4.1490    -0.0020     2.0510 ha         1 H2W       0.118000
     22 HAR          5.3190    -0.0020    -0.1150 ha         1 H2W       0.111000
     23 HAS          4.0540    -0.0000    -2.2210 ha         1 H2W       0.129000
     24 HAA         -0.5470    -0.0020    -3.2330 hn         1 H2W       0.180500
     25 HAI         -2.3220    -0.0020    -3.3180 ha         1 H2W       0.115500
     26 HAN         -2.2910    -0.0060     0.9760 ha         1 H2W       0.115500
     27 HAJ         -4.7840    -0.0010    -3.2900 ha         1 H2W       0.118500
     28 HAM         -4.7530    -0.0020     0.9840 ha         1 H2W       0.118500
@<TRIPOS>BOND
     1     1     2 1   
     2     1    12 2   
     3     1    20 1   
     4     2     3 ar  
     5     2     8 ar  
     6     3     4 1   
     7     3     5 ar  
     8     5     6 ar  
     9     5    21 1   
    10     6     7 ar  
    11     6    22 1   
    12     7     8 ar  
    13     7    23 1   
    14     8     9 1   
    15     9    10 2   
    16     9    11 1   
    17    11    12 1   
    18    11    24 1   
    19    12    13 1   
    20    13    14 ar  
    21    13    19 ar  
    22    14    15 ar  
    23    14    25 1   
    24    15    16 ar  
    25    15    27 1   
    26    16    17 1   
    27    16    18 ar  
    28    18    19 ar  
    29    18    28 1   
    30    19    26 1   
@<TRIPOS>SUBSTRUCTURE
     1 H2W         1 TEMP              0 ****  ****    0 ROOT
