@<TRIPOS>MOLECULE
H32
   30    32     1     0     0
SMALL
bcc


@<TRIPOS>ATOM
      1 C01          0.0000     0.0000     0.0000 ca         1 H32      -0.138000
      2 C02          1.3840     0.0000     0.0000 ca         1 H32      -0.114000
      3 C03          2.0790     0.0000     1.1910 ca         1 H32      -0.132300
      4 C04          1.3970     0.0010     2.4060 ca         1 H32      -0.140600
      5 C05         -0.0120     0.0010     2.4050 ca         1 H32      -0.006600
      6 C06         -0.6980     0.0050     1.1940 ca         1 H32      -0.057000
      7 C07         -0.7560     0.0060     3.6820 c          1 H32       0.945200
      8 O08         -0.1540     0.0020     4.7370 o          1 H32      -0.858300
      9 O09         -2.1030     0.0160     3.6760 o          1 H32      -0.858300
     10 C10          2.3890     0.0000     3.4970 c          1 H32       0.624100
     11 O11          2.1190    -0.0000     4.6830 o          1 H32      -0.555500
     12 N12          3.6360    -0.0010     2.9930 n          1 H32      -0.018000
     13 C13          3.5490    -0.0010     1.5280 c3         1 H32       0.106300
     14 C14          4.8190    -0.0010     3.7410 ca         1 H32      -0.002400
     15 C15          4.7640    -0.0020     5.1280 ca         1 H32      -0.155000
     16 C16          5.9310    -0.0020     5.8660 ca         1 H32      -0.085000
     17 C17          7.1590    -0.0010     5.2230 ca         1 H32       0.035100
     18 C18          7.2170    -0.0000     3.8350 ca         1 H32       0.097900
     19 C19          6.0490    -0.0060     3.0950 ca         1 H32      -0.203000
     20 F20          8.4130     0.0010     3.2080 f          1 H32      -0.132900
     21 O21          8.3080    -0.0000     5.9510 oh         1 H32      -0.491100
     22 H1          -0.5300    -0.0010    -0.9450 ha         1 H32       0.089000
     23 H2           1.8300    -0.0010    -0.9870 ha         1 H32       0.086000
     24 H3          -1.7680     0.0070     1.0250 ha         1 H32       0.122000
     25 H5           4.0210     0.8890     1.1290 h1         1 H32       0.015700
     26 H6           4.0210    -0.8900     1.1290 h1         1 H32       0.015700
     27 H7           3.8050    -0.0030     5.6320 ha         1 H32       0.184000
     28 H8           5.8870    -0.0030     6.9480 ha         1 H32       0.112000
     29 H9           6.0930    -0.0060     2.0120 ha         1 H32       0.124000
     30 H10          8.5080     0.8800     6.2220 ho         1 H32       0.392000
@<TRIPOS>BOND
     1     1     2 ar  
     2     1     6 ar  
     3     1    22 1   
     4     2     3 ar  
     5     2    23 1   
     6     3     4 ar  
     7     3    13 1   
     8     4     5 ar  
     9     4    10 1   
    10     5     6 ar  
    11     5     7 1   
    12     6    24 1   
    13     7     8 1   
    14     7     9 1   
    15    10    11 2   
    16    10    12 1   
    17    12    13 1   
    18    12    14 1   
    19    13    25 1   
    20    13    26 1   
    21    14    15 ar  
    22    14    19 ar  
    23    15    16 ar  
    24    15    27 1   
    25    16    17 ar  
    26    16    28 1   
    27    17    18 ar  
    28    17    21 1   
    29    18    19 ar  
    30    18    20 1   
    31    19    29 1   
    32    21    30 1   
@<TRIPOS>SUBSTRUCTURE
     1 H32         1 TEMP              0 ****  ****    0 ROOT
