@<TRIPOS>MOLECULE
molecule
   21    22     1     0     0
SMALL
bcc


@<TRIPOS>ATOM
      1 N1           0.0000     0.0000     0.0000 n          1 H33      -0.516400
      2 C2           1.4210     0.0000     0.0000 c          1 H33       0.778100
      3 C3           1.9430     0.0000     1.3280 cc         1 H33      -0.349200
      4 C4           1.1800    -0.0010     2.4620 cd         1 H33       0.504200
      5 N5          -0.2070    -0.0000     2.4130 n          1 H33      -0.439300
      6 C6          -0.8620     0.0000     1.1560 c          1 H33       0.836500
      7 N7           3.2350    -0.0010     1.7690 na         1 H33      -0.250900
      8 C8           3.1900    -0.0010     3.1390 cc         1 H33       0.523500
      9 N9           1.9520    -0.0010     3.5930 nd         1 H33      -0.673000
     10 C11         -0.9860     0.0000     3.6460 c3         1 H33       0.104300
     11 C15         -0.6750     0.0000    -1.2940 c3         1 H33       0.085300
     12 O19         -2.0930     0.0020     1.0500 o          1 H33      -0.607500
     13 O20          2.1290     0.0000    -1.0030 o          1 H33      -0.600500
     14 Cl           4.6310    -0.0020     4.0270 cl         1 H33      -0.068000
     15 H151        -1.3100    -0.8740    -1.3700 h1         1 H33       0.058033
     16 H152        -1.2790     0.8950    -1.3860 h1         1 H33       0.058033
     17 H153         0.0640    -0.0200    -2.0860 h1         1 H33       0.058033
     18 H7           3.9280     0.5410     1.2910 hn         1 H33       0.317700
     19 H111        -1.2160     1.0210     3.9270 h1         1 H33       0.060033
     20 H112        -0.4130    -0.4720     4.4350 h1         1 H33       0.060033
     21 H113        -1.9070    -0.5480     3.4910 h1         1 H33       0.060033
@<TRIPOS>BOND
     1    10    21 1
     2     1     2 1
     3     2     3 1
     4     3     4 2
     5     4     5 1
     6     1     6 1
     7     5     6 1
     8     3     7 1
     9     7     8 1
    10     4     9 1
    11     8     9 2
    12     5    10 1
    13     1    11 1
    14     6    12 2
    15     2    13 2
    16     8    14 1
    17    11    15 1
    18    11    16 1
    19    11    17 1
    20     7    18 1
    21    10    19 1
    22    10    20 1
@<TRIPOS>SUBSTRUCTURE
     1 H33         1 TEMP              0 ****  ****    0 ROOT
