@<TRIPOS>MOLECULE
H34
   56    60     1     0     0
SMALL
bcc


@<TRIPOS>ATOM
      1 CAN          0.0000     0.0000     0.0000 c3         1 H34       0.037800
      2 CBC          1.5330     0.0000     0.0000 c3         1 H34       0.021600
      3 CAP          2.0150     0.0000     1.4520 c3         1 H34      -0.023400
      4 CAY          2.0320     1.2210    -0.7240 ca         1 H34      -0.195600
      5 CAV          2.0120     1.1970    -2.1160 ca         1 H34       0.071600
      6 NAA          1.5480     0.0830    -2.8000 nv         1 H34      -0.547200
      7 CBA          2.4750     2.3330    -2.8160 ca         1 H34      -0.173300
      8 CAF          2.4890     2.3780    -4.2160 ca         1 H34      -0.068000
      9 CAE          2.9430     3.4960    -4.8500 ca         1 H34      -0.105000
     10 CAU          3.3950     4.5960    -4.1210 ca         1 H34      -0.026600
     11 Cl1          3.9650     6.0030    -4.9620 cl         1 H34      -0.026400
     12 CAG          3.3940     4.5830    -2.7590 ca         1 H34      -0.144300
     13 CAZ          2.9340     3.4460    -2.0710 ca         1 H34       0.391600
     14 NAS          2.9250     3.4000    -0.7380 nb         1 H34      -0.582000
     15 CAX          2.5010     2.3440    -0.0660 ca         1 H34       0.414600
     16 CAO          2.5600     2.4210     1.4400 c3         1 H34      -0.061700
     17 CBB          1.6530     1.3590     2.0610 c3         1 H34       0.003500
     18 CAD          0.2170     1.6880     1.7860 c2         1 H34      -0.149200
     19 CAT         -0.5060     1.1000     0.8880 c2         1 H34      -0.136400
     20 CAL         -1.9370     1.5440     0.7230 c3         1 H34       0.023800
     21 CAJ         -2.0230     2.5850    -0.3950 c3         1 H34      -0.024400
     22 CAK         -3.4750     3.0360    -0.5610 c3         1 H34      -0.045400
     23 CAM         -3.5610     4.0760    -1.6810 c3         1 H34      -0.030700
     24 NBD         -4.9510     4.5080    -1.8400 na         1 H34       0.588400
     25 CAH         -5.3960     5.7850    -1.7910 cc         1 H34      -0.425600
     26 NAR         -5.9600     3.7390    -2.0570 nc         1 H34      -0.378800
     27 NAQ         -7.0380     4.4350    -2.1460 nd         1 H34      -0.316000
     28 CAW         -6.7340     5.7270    -1.9860 cd         1 H34       0.250600
     29 CAI         -7.6910     6.8900    -2.0190 c3         1 H34       0.229100
     30 OAB         -6.9720     8.1070    -1.8090 oh         1 H34      -0.601800
     31 HAN1        -0.3590     0.1590    -1.0100 hc         1 H34       0.024700
     32 HAN2        -0.3590    -0.9530     0.3690 hc         1 H34       0.024700
     33 HBC          1.8940    -0.8900    -0.5010 hc         1 H34       0.034700
     34 HAP1         1.5230    -0.7930     2.0030 hc         1 H34       0.022200
     35 HAP2         3.0890    -0.1420     1.4830 hc         1 H34       0.022200
     36 HBB          1.8160     1.3280     3.1320 hc         1 H34       0.031700
     37 HAA1         0.6280     0.0860    -3.1940 hn         1 H34       0.279300
     38 HAA2         2.1500    -0.7030    -2.9420 hn         1 H34       0.279300
     39 HAF          2.1410     1.5290    -4.7930 ha         1 H34       0.111000
     40 HAE          2.9540     3.5300    -5.9320 ha         1 H34       0.114000
     41 HAG          3.7480     5.4450    -2.2070 ha         1 H34       0.129000
     42 HAO1         3.5790     2.2540     1.7660 hc         1 H34       0.032700
     43 HAO2         2.2320     3.4020     1.7610 hc         1 H34       0.032700
     44 HAD         -0.2460     2.4670     2.3790 ha         1 H34       0.103000
     45 HAL1        -2.5530     0.6900     0.4700 hc         1 H34       0.020200
     46 HAL2        -2.2890     1.9800     1.6500 hc         1 H34       0.020200
     47 HAJ1        -1.6720     2.1480    -1.3230 hc         1 H34       0.019700
     48 HAJ2        -1.4070     3.4390    -0.1420 hc         1 H34       0.019700
     49 HAK1        -4.0920     2.1820    -0.8140 hc         1 H34       0.034200
     50 HAK2        -3.8250     3.4730     0.3660 hc         1 H34       0.034200
     51 HAM1        -3.2100     3.6390    -2.6080 h1         1 H34       0.039200
     52 HAM2        -2.9440     4.9300    -1.4280 h1         1 H34       0.039200
     53 HAH         -4.8010     6.6760    -1.6260 h4         1 H34       0.172000
     54 HAI1        -8.4330     6.7700    -1.2390 h1         1 H34      -0.003300
     55 HAI2        -8.1840     6.9250    -2.9830 h1         1 H34      -0.003300
     56 HAB         -7.5710     8.8340    -1.8300 ho         1 H34       0.395000
@<TRIPOS>BOND
     1     1     2 1   
     2     1    19 1   
     3     1    31 1   
     4     1    32 1   
     5     2     3 1   
     6     2     4 1   
     7     2    33 1   
     8     3    17 1   
     9     3    34 1   
    10     3    35 1   
    11     4     5 ar  
    12     4    15 ar  
    13     5     6 1   
    14     5     7 ar  
    15     6    37 1   
    16     6    38 1   
    17     7     8 ar  
    18     7    13 ar  
    19     8     9 ar  
    20     8    39 1   
    21     9    10 ar  
    22     9    40 1   
    23    10    11 1   
    24    10    12 ar  
    25    12    13 ar  
    26    12    41 1   
    27    13    14 ar  
    28    14    15 ar  
    29    15    16 1   
    30    16    17 1   
    31    16    42 1   
    32    16    43 1   
    33    17    18 1   
    34    17    36 1   
    35    18    19 2   
    36    18    44 1   
    37    19    20 1   
    38    20    21 1   
    39    20    45 1   
    40    20    46 1   
    41    21    22 1   
    42    21    47 1   
    43    21    48 1   
    44    22    23 1   
    45    22    49 1   
    46    22    50 1   
    47    23    24 1   
    48    23    51 1   
    49    23    52 1   
    50    24    25 1   
    51    24    26 1   
    52    25    28 2   
    53    25    53 1   
    54    26    27 2   
    55    27    28 1   
    56    28    29 1   
    57    29    30 1   
    58    29    54 1   
    59    29    55 1   
    60    30    56 1   
@<TRIPOS>SUBSTRUCTURE
     1 H34         1 TEMP              0 ****  ****    0 ROOT
