@<TRIPOS>MOLECULE
molecule
   56    60     1     0     0
SMALL
bcc


@<TRIPOS>ATOM
      1 CAN          0.0000     0.0000     0.0000 c3         1 H34      -0.026200
      2 CBC          1.5330     0.0000     0.0000 c3         1 H34      -0.008400
      3 CAP          2.0150     0.0000     1.4520 c3         1 H34      -0.074400
      4 CAY          2.0320     1.2210    -0.7240 ca         1 H34      -0.204600
      5 CAV          2.0120     1.1970    -2.1160 ca         1 H34       0.209600
      6 NAA          1.5480     0.0830    -2.8000 nv         1 H34      -0.982200
      7 CBA          2.4750     2.3330    -2.8160 ca         1 H34      -0.183300
      8 CAF          2.4890     2.3780    -4.2160 ca         1 H34      -0.091000
      9 CAE          2.9430     3.4960    -4.8500 ca         1 H34      -0.134000
     10 CAU          3.3950     4.5960    -4.1210 ca         1 H34       0.039400
     11 Cl1          3.9650     6.0030    -4.9620 cl         1 H34      -0.106400
     12 CAG          3.3940     4.5830    -2.7590 ca         1 H34      -0.165300
     13 CAZ          2.9340     3.4460    -2.0710 ca         1 H34       0.437600
     14 NAS          2.9250     3.4000    -0.7380 nb         1 H34      -0.701000
     15 CAX          2.5010     2.3440    -0.0660 ca         1 H34       0.469600
     16 CAO          2.5600     2.4210     1.4400 c3         1 H34      -0.116700
     17 CBB          1.6530     1.3590     2.0610 c3         1 H34      -0.033500
     18 CAD          0.2170     1.6880     1.7860 c2         1 H34      -0.164200
     19 CAT         -0.5060     1.1000     0.8880 c2         1 H34      -0.119400
     20 CAL         -1.9370     1.5440     0.7230 c3         1 H34      -0.041200
     21 CAJ         -2.0230     2.5850    -0.3950 c3         1 H34      -0.077400
     22 CAK         -3.4750     3.0360    -0.5610 c3         1 H34      -0.101400
     23 CAM         -3.5610     4.0760    -1.6810 c3         1 H34       0.058300
     24 NBD         -4.9510     4.5080    -1.8400 na         1 H34       0.122400
     25 CAH         -5.3960     5.7850    -1.7910 cc         1 H34      -0.260600
     26 NAR         -5.9600     3.7390    -2.0570 nc         1 H34      -0.207800
     27 NAQ         -7.0380     4.4350    -2.1460 nd         1 H34      -0.364000
     28 CAW         -6.7340     5.7270    -1.9860 cd         1 H34       0.266600
     29 CAI         -7.6910     6.8900    -2.0190 c3         1 H34       0.133100
     30 OAB         -6.9720     8.1070    -1.8090 oh         1 H34      -0.618800
     31 HAN1        -0.3590     0.1590    -1.0100 hc         1 H34       0.052700
     32 HAN2        -0.3590    -0.9530     0.3690 hc         1 H34       0.052700
     33 HBC          1.8940    -0.8900    -0.5010 hc         1 H34       0.061700
     34 HAP1         1.5230    -0.7930     2.0030 hc         1 H34       0.049700
     35 HAP2         3.0890    -0.1420     1.4830 hc         1 H34       0.049700
     36 HBB          1.8160     1.3280     3.1320 hc         1 H34       0.061700
     37 HAA1         0.6280     0.0860    -3.1940 hn         1 H34       0.434300
     38 HAA2         2.1500    -0.7030    -2.9420 hn         1 H34       0.434300
     39 HAF          2.1410     1.5290    -4.7930 ha         1 H34       0.142000
     40 HAE          2.9540     3.5300    -5.9320 ha         1 H34       0.143000
     41 HAG          3.7480     5.4450    -2.2070 ha         1 H34       0.161000
     42 HAO1         3.5790     2.2540     1.7660 hc         1 H34       0.067200
     43 HAO2         2.2320     3.4020     1.7610 hc         1 H34       0.067200
     44 HAD         -0.2460     2.4670     2.3790 ha         1 H34       0.122000
     45 HAL1        -2.5530     0.6900     0.4700 hc         1 H34       0.049700
     46 HAL2        -2.2890     1.9800     1.6500 hc         1 H34       0.049700
     47 HAJ1        -1.6720     2.1480    -1.3230 hc         1 H34       0.047700
     48 HAJ2        -1.4070     3.4390    -0.1420 hc         1 H34       0.047700
     49 HAK1        -4.0920     2.1820    -0.8140 hc         1 H34       0.063700
     50 HAK2        -3.8250     3.4730     0.3660 hc         1 H34       0.063700
     51 HAM1        -3.2100     3.6390    -2.6080 h1         1 H34       0.068700
     52 HAM2        -2.9440     4.9300    -1.4280 h1         1 H34       0.068700
     53 HAH         -4.8010     6.6760    -1.6260 h4         1 H34       0.195000
     54 HAI1        -8.4330     6.7700    -1.2390 h1         1 H34       0.040200
     55 HAI2        -8.1840     6.9250    -2.9830 h1         1 H34       0.040200
     56 HAB         -7.5710     8.8340    -1.8300 ho         1 H34       0.410000
@<TRIPOS>BOND
     1     1     2 1
     2     1    19 1
     3     2     3 1
     4     2     4 1
     5     3    17 1
     6     4     5 ar
     7     4    15 ar
     8     5     6 1
     9     5     7 ar
    10     7     8 ar
    11     7    13 ar
    12     8     9 ar
    13     9    10 ar
    14    10    11 1
    15    10    12 ar
    16    12    13 ar
    17    13    14 ar
    18    14    15 ar
    19    15    16 1
    20    16    17 1
    21    17    18 1
    22    18    19 2
    23    19    20 1
    24    20    21 1
    25    21    22 1
    26    22    23 1
    27    23    24 1
    28    24    25 1
    29    24    26 1
    30    25    28 2
    31    26    27 2
    32    27    28 1
    33    28    29 1
    34    29    30 1
    35     1    31 1
    36     1    32 1
    37     2    33 1
    38     3    34 1
    39     3    35 1
    40    17    36 1
    41     6    37 1
    42     6    38 1
    43     8    39 1
    44     9    40 1
    45    12    41 1
    46    16    42 1
    47    16    43 1
    48    18    44 1
    49    20    45 1
    50    20    46 1
    51    21    47 1
    52    21    48 1
    53    22    49 1
    54    22    50 1
    55    23    51 1
    56    23    52 1
    57    25    53 1
    58    29    54 1
    59    29    55 1
    60    30    56 1
@<TRIPOS>SUBSTRUCTURE
     1 H34         1 TEMP              0 ****  ****    0 ROOT
