@<TRIPOS>MOLECULE
molecule
   25    27     1     0     0
SMALL
bcc


@<TRIPOS>ATOM
      1 CAM          0.0000     0.0000     0.0000 cc         1 H35      -0.256300
      2 CAO          1.4150     0.0000     0.0000 cc         1 H35      -0.273300
      3 CAN          1.7970     0.0000     1.3210 cd         1 H35       0.226600
      4 OAL          0.7070    -0.0010     2.1330 os         1 H35      -0.319800
      5 CAK         -0.3540    -0.0010     1.3060 cd         1 H35       0.211000
      6 CAP         -1.6920    -0.0020     1.9880 c3         1 H35       0.216500
      7 N6          -1.8640     1.1440     2.8330 nu         1 H35      -0.910900
      8 C6          -3.0130     1.3550     3.6130 ca         1 H35       0.733200
      9 N1          -4.0300     0.4650     3.6040 nb         1 H35      -0.766000
     10 C2          -5.1030     0.7350     4.3860 ca         1 H35       0.656900
     11 N3          -5.3140     1.7940     5.1960 nb         1 H35      -0.664000
     12 C4          -4.2790     2.6680     5.1840 ca         1 H35       0.571300
     13 C5          -3.1410     2.4730     4.4140 ca         1 H35      -0.365800
     14 N7          -2.3530     3.5570     4.6790 na         1 H35      -0.257300
     15 C8          -3.0280     4.3440     5.5730 cc         1 H35       0.430700
     16 N9          -4.1970     3.8360     5.8990 nd         1 H35      -0.634700
     17 HAM         -0.5420    -0.6150    -0.7080 ha         1 H35       0.169000
     18 HAO          1.9570    -0.6010    -0.7210 ha         1 H35       0.167000
     19 HAN          2.6980     0.5200     1.6250 h4         1 H35       0.055100
     20 HAP1        -2.4710    -0.0050     1.2360 h1         1 H35       0.069700
     21 HAP2        -1.7790    -0.8990     2.5900 h1         1 H35       0.069700
     22 H6          -1.1320     1.8250     2.8680 hn         1 H35       0.438800
     23 H2          -5.9000     0.0030     4.3560 h5         1 H35       0.052100
     24 H7          -1.4490     3.7420     4.2900 hn         1 H35       0.304700
     25 H8          -2.4800     4.9440     6.2900 h5         1 H35       0.075800
@<TRIPOS>BOND
     1     1     2 1
     2     2     3 2
     3     3     4 1
     4     1     5 2
     5     4     5 1
     6     5     6 1
     7     6     7 1
     8     7     8 1
     9     8     9 ar
    10     9    10 ar
    11    10    11 ar
    12    11    12 ar
    13     8    13 ar
    14    12    13 ar
    15    13    14 1
    16    14    15 1
    17    12    16 1
    18    15    16 2
    19     1    17 1
    20     2    18 1
    21     3    19 1
    22     6    20 1
    23     6    21 1
    24     7    22 1
    25    10    23 1
    26    14    24 1
    27    15    25 1
@<TRIPOS>SUBSTRUCTURE
     1 H35         1 TEMP              0 ****  ****    0 ROOT
