@<TRIPOS>MOLECULE
molecule
   54    57     1     0     0
SMALL
bcc


@<TRIPOS>ATOM
      1 N28          0.0000     0.0000     0.0000 n2         1 H36      -0.868600
      2 C26          1.3070     0.0000     0.0000 ce         1 H36       0.720800
      3 C25          2.0420     0.0000     1.2730 cc         1 H36      -0.128500
      4 S21          3.7920     0.0010     1.4410 ss         1 H36      -0.101800
      5 C22          3.6770     0.0010     3.1430 cc         1 H36      -0.093600
      6 C23          2.3990    -0.0000     3.5350 cd         1 H36      -0.164000
      7 C24          1.4750     0.0050     2.5140 cd         1 H36      -0.105000
      8 N27          1.9970     0.0000    -1.1970 nu         1 H36      -0.761100
      9 C31          1.3070    -0.1510    -2.4020 ca         1 H36       0.197600
     10 C36          1.7040     0.5620    -3.5260 ca         1 H36      -0.173000
     11 C32          0.2260    -1.0200    -2.4800 ca         1 H36      -0.211500
     12 C33         -0.4570    -1.1700    -3.6720 ca         1 H36      -0.067500
     13 C34         -0.0660    -0.4580    -4.7890 ca         1 H36      -0.244500
     14 C35          1.0170     0.4080    -4.7190 ca         1 H36       0.164100
     15 O37          1.4000     1.1090    -5.8190 os         1 H36      -0.318900
     16 C38          0.6430     0.9050    -7.0140 c3         1 H36       0.140900
     17 C18          1.2180     1.7730    -8.1350 c3         1 H36       0.140900
     18 O17          2.5410     1.3320    -8.4470 os         1 H36      -0.318900
     19 C15          3.1990     2.0010    -9.4300 ca         1 H36       0.164100
     20 C14          2.5820     3.0610   -10.0810 ca         1 H36      -0.244500
     21 C13          3.2490     3.7430   -11.0810 ca         1 H36      -0.067500
     22 C12          4.5320     3.3720   -11.4350 ca         1 H36      -0.211500
     23 C16          4.4870     1.6300    -9.7790 ca         1 H36      -0.173000
     24 C11          5.1540     2.3120   -10.7870 ca         1 H36       0.197600
     25 N07          6.4530     1.9380   -11.1460 nu         1 H36      -0.761100
     26 C06          6.7780     0.6010   -11.2640 cf         1 H36       0.720800
     27 N08          5.8470    -0.3110   -11.1550 n2         1 H36      -0.868600
     28 C05          8.1710     0.2010   -11.5100 cd         1 H36      -0.128500
     29 S01          9.5320     1.3020   -11.6800 ss         1 H36      -0.101800
     30 C02         10.6130     0.0030   -11.9190 cd         1 H36      -0.093600
     31 C03          9.9710    -1.1680   -11.8710 cc         1 H36      -0.164000
     32 C04          8.6160    -1.0810   -11.6390 cc         1 H36      -0.105000
     33 H1          -0.5010     0.0000    -0.8670 hn         1 H36       0.413900
     34 H2           4.5260    -0.0010     3.8160 h4         1 H36       0.173500
     35 H3           2.1110     0.0010     4.5790 ha         1 H36       0.152500
     36 H4           0.4050     0.0050     2.6790 ha         1 H36       0.165500
     37 H5           2.9860     0.1550    -1.2040 hn         1 H36       0.447800
     38 H6           2.5490     1.2370    -3.4690 ha         1 H36       0.157000
     39 H7          -0.0820    -1.5800    -1.6060 ha         1 H36       0.140500
     40 H8          -1.3010    -1.8470    -3.7300 ha         1 H36       0.132500
     41 H9          -0.6030    -0.5780    -5.7220 ha         1 H36       0.132500
     42 H10         -0.3900     1.1800    -6.8380 h1         1 H36       0.049700
     43 H11          0.6950    -0.1380    -7.3010 h1         1 H36       0.049700
     44 H12          1.2480     2.8070    -7.8130 h1         1 H36       0.049700
     45 H13          0.5920     1.6870    -9.0150 h1         1 H36       0.049700
     46 H14          1.5760     3.3540    -9.8050 ha         1 H36       0.132500
     47 H15          2.7650     4.5690   -11.5870 ha         1 H36       0.132500
     48 H16          5.0530     3.9060   -12.2210 ha         1 H36       0.140500
     49 H17          4.9700     0.8040    -9.2710 ha         1 H36       0.157000
     50 H18          7.1290     2.6390   -11.3770 hn         1 H36       0.447800
     51 H19          6.0830    -1.2790   -11.2400 hn         1 H36       0.413900
     52 H20         11.6780     0.1130   -12.0890 h4         1 H36       0.173500
     53 H21         10.4800    -2.1160   -11.9980 ha         1 H36       0.152500
     54 H22          7.9660    -1.9460   -11.5740 ha         1 H36       0.165500
@<TRIPOS>BOND
     1    31    30 2
     2    31    32 1
     3    30    29 1
     4    32    28 2
     5    29    28 1
     6    28    26 1
     7    13    12 ar
     8    13    14 ar
     9    12    11 ar
    10    26    27 2
    11    26    25 1
    12    22    24 ar
    13    22    21 ar
    14    25    24 1
    15    24    23 ar
    16    21    20 ar
    17    23    19 ar
    18    15    14 1
    19    15    16 1
    20    14    10 ar
    21    20    19 ar
    22    19    18 1
    23    11     9 ar
    24    18    17 1
    25    17    16 1
    26    10     9 ar
    27     9     8 1
    28     8     2 1
    29     1     2 2
    30     2     3 1
    31     3     4 1
    32     3     7 2
    33     4     5 1
    34     7     6 1
    35     5     6 2
    36     1    33 1
    37     5    34 1
    38     6    35 1
    39     7    36 1
    40     8    37 1
    41    10    38 1
    42    11    39 1
    43    12    40 1
    44    13    41 1
    45    16    42 1
    46    16    43 1
    47    17    44 1
    48    17    45 1
    49    20    46 1
    50    21    47 1
    51    22    48 1
    52    23    49 1
    53    25    50 1
    54    27    51 1
    55    30    52 1
    56    31    53 1
    57    32    54 1
@<TRIPOS>SUBSTRUCTURE
     1 H36         1 TEMP              0 ****  ****    0 ROOT
