@<TRIPOS>MOLECULE
H38
   46    49     1     0     0
SMALL
bcc


@<TRIPOS>ATOM
      1 N26          0.0000     0.0000     0.0000 n2         1 H38      -0.757100
      2 C26          1.3060     0.0000     0.0000 ce         1 H38       0.537800
      3 C25          2.0410     0.0000     1.2740 cc         1 H38      -0.077500
      4 S21          3.7920     0.0070     1.4410 ss         1 H38      -0.233800
      5 C22          3.6760     0.0020     3.1440 cc         1 H38      -0.010100
      6 C23          2.3990    -0.0050     3.5360 cd         1 H38      -0.132500
      7 C24          1.4750     0.0000     2.5150 cd         1 H38      -0.079000
      8 N27          1.9980    -0.0010    -1.1960 nu         1 H38      -0.309600
      9 C31          1.3060    -0.1530    -2.4010 ca         1 H38       0.012100
     10 C36          1.7040     0.5600    -3.5240 ca         1 H38      -0.144000
     11 C32          0.2250    -1.0220    -2.4800 ca         1 H38      -0.115000
     12 C33         -0.4600    -1.1750    -3.6700 ca         1 H38      -0.073500
     13 C34         -0.0740    -0.4650    -4.7890 ca         1 H38      -0.118000
     14 C35          1.0140     0.4050    -4.7220 cp         1 H38      -0.007000
     15 C15          1.4300     1.1700    -5.9250 cp         1 H38      -0.007000
     16 C14          2.5160     2.0390    -5.8580 ca         1 H38      -0.118000
     17 C13          2.9030     2.7500    -6.9770 ca         1 H38      -0.073500
     18 C12          2.2160     2.6010    -8.1660 ca         1 H38      -0.115000
     19 C16          0.7400     1.0140    -7.1240 ca         1 H38      -0.144000
     20 C11          1.1290     1.7360    -8.2420 ca         1 H38       0.012100
     21 N07          0.4350     1.5890    -9.4470 nu         1 H38      -0.309600
     22 C06         -0.9450     1.5350    -9.4460 ce         1 H38       0.537800
     23 N06         -1.6060     1.7400    -8.3370 n2         1 H38      -0.757100
     24 C05         -1.6710     1.2490   -10.6930 cc         1 H38      -0.077500
     25 S01         -0.9290     0.9520   -12.2590 ss         1 H38      -0.233800
     26 C02         -2.4540     0.7410   -12.9940 cc         1 H38      -0.010100
     27 C03         -3.4380     0.8900   -12.1030 cd         1 H38      -0.132500
     28 C04         -3.0250     1.1650   -10.8180 cd         1 H38      -0.079000
     29 H1          -0.5000     0.0000     0.8670 hn         1 H38       0.342400
     30 H2           4.5250     0.0020     3.8170 h4         1 H38       0.151000
     31 H3           2.1120    -0.0070     4.5810 ha         1 H38       0.123000
     32 H4           0.4040    -0.0040     2.6800 ha         1 H38       0.136500
     33 H5           2.9840     0.1670    -1.2030 hn         1 H38       0.292800
     34 H6           2.5490     1.2350    -3.4670 ha         1 H38       0.125500
     35 H7          -0.0820    -1.5820    -1.6040 ha         1 H38       0.119000
     36 H8          -1.3030    -1.8520    -3.7240 ha         1 H38       0.103500
     37 H9          -0.6130    -0.5870    -5.7200 ha         1 H38       0.113000
     38 H10          3.0580     2.1580    -4.9270 ha         1 H38       0.113000
     39 H11          3.7490     3.4250    -6.9230 ha         1 H38       0.103500
     40 H12          2.5210     3.1620    -9.0400 ha         1 H38       0.119000
     41 H13         -0.1060     0.3400    -7.1810 ha         1 H38       0.125500
     42 H14          0.9350     1.5710   -10.3130 hn         1 H38       0.292800
     43 H15         -1.1120     1.9360    -7.4890 hn         1 H38       0.342400
     44 H16         -2.6040     0.5200   -14.0440 h4         1 H38       0.151000
     45 H17         -4.4830     0.7930   -12.3700 ha         1 H38       0.123000
     46 H18         -3.7090     1.3110    -9.9910 ha         1 H38       0.136500
@<TRIPOS>BOND
     1     1     2 2   
     2     1    29 1   
     3     2     3 1   
     4     2     8 1   
     5     3     4 1   
     6     3     7 2   
     7     4     5 1   
     8     5     6 2   
     9     5    30 1   
    10     6     7 1   
    11     6    31 1   
    12     7    32 1   
    13     8     9 1   
    14     8    33 1   
    15     9    10 ar  
    16     9    11 ar  
    17    10    14 ar  
    18    10    34 1   
    19    11    12 ar  
    20    11    35 1   
    21    12    13 ar  
    22    12    36 1   
    23    13    14 ar  
    24    13    37 1   
    25    14    15 1   
    26    15    16 ar  
    27    15    19 ar  
    28    16    17 ar  
    29    16    38 1   
    30    17    18 ar  
    31    17    39 1   
    32    18    20 ar  
    33    18    40 1   
    34    19    20 ar  
    35    19    41 1   
    36    20    21 1   
    37    21    22 1   
    38    21    42 1   
    39    22    23 2   
    40    22    24 1   
    41    23    43 1   
    42    24    25 1   
    43    24    28 2   
    44    25    26 1   
    45    26    27 2   
    46    26    44 1   
    47    27    28 1   
    48    27    45 1   
    49    28    46 1   
@<TRIPOS>SUBSTRUCTURE
     1 H38         1 TEMP              0 ****  ****    0 ROOT
