@<TRIPOS>MOLECULE
molecule
   46    49     1     0     0
SMALL
bcc


@<TRIPOS>ATOM
      1 N26          0.0000     0.0000     0.0000 n2         1 H38      -0.871600
      2 C26          1.3060     0.0000     0.0000 ce         1 H38       0.721300
      3 C25          2.0410     0.0000     1.2740 cc         1 H38      -0.128000
      4 S21          3.7920     0.0070     1.4410 ss         1 H38      -0.103800
      5 C22          3.6760     0.0020     3.1440 cc         1 H38      -0.092600
      6 C23          2.3990    -0.0050     3.5360 cd         1 H38      -0.163500
      7 C24          1.4750     0.0000     2.5150 cd         1 H38      -0.105500
      8 N27          1.9980    -0.0010    -1.1960 nu         1 H38      -0.763100
      9 C31          1.3060    -0.1530    -2.4010 ca         1 H38       0.163100
     10 C36          1.7040     0.5600    -3.5240 ca         1 H38      -0.132500
     11 C32          0.2250    -1.0220    -2.4800 ca         1 H38      -0.171500
     12 C33         -0.4600    -1.1750    -3.6700 ca         1 H38      -0.106000
     13 C34         -0.0740    -0.4650    -4.7890 ca         1 H38      -0.138000
     14 C35          1.0140     0.4050    -4.7220 cp         1 H38      -0.013000
     15 C15          1.4300     1.1700    -5.9250 cp         1 H38      -0.013000
     16 C14          2.5160     2.0390    -5.8580 ca         1 H38      -0.138000
     17 C13          2.9030     2.7500    -6.9770 ca         1 H38      -0.106000
     18 C12          2.2160     2.6010    -8.1660 ca         1 H38      -0.171500
     19 C16          0.7400     1.0140    -7.1240 ca         1 H38      -0.132500
     20 C11          1.1290     1.7360    -8.2420 ca         1 H38       0.163100
     21 N07          0.4350     1.5890    -9.4470 nu         1 H38      -0.763100
     22 C06         -0.9450     1.5350    -9.4460 cf         1 H38       0.721300
     23 N06         -1.6060     1.7400    -8.3370 n2         1 H38      -0.871600
     24 C05         -1.6710     1.2490   -10.6930 cd         1 H38      -0.128000
     25 S01         -0.9290     0.9520   -12.2590 ss         1 H38      -0.103800
     26 C02         -2.4540     0.7410   -12.9940 cd         1 H38      -0.092600
     27 C03         -3.4380     0.8900   -12.1030 cc         1 H38      -0.163500
     28 C04         -3.0250     1.1650   -10.8180 cc         1 H38      -0.105500
     29 H1          -0.5010    -0.0000    -0.8670 hn         1 H38       0.413400
     30 H2           4.5250     0.0020     3.8170 h4         1 H38       0.173500
     31 H3           2.1120    -0.0070     4.5810 ha         1 H38       0.152500
     32 H4           0.4040    -0.0040     2.6800 ha         1 H38       0.165500
     33 H5           2.9840     0.1670    -1.2030 hn         1 H38       0.445800
     34 H6           2.5490     1.2350    -3.4670 ha         1 H38       0.146000
     35 H7          -0.0820    -1.5820    -1.6040 ha         1 H38       0.139500
     36 H8          -1.3030    -1.8520    -3.7240 ha         1 H38       0.133000
     37 H9          -0.6130    -0.5870    -5.7200 ha         1 H38       0.136000
     38 H10          3.0580     2.1580    -4.9270 ha         1 H38       0.136000
     39 H11          3.7490     3.4250    -6.9230 ha         1 H38       0.133000
     40 H12          2.5210     3.1620    -9.0400 ha         1 H38       0.139500
     41 H13         -0.1060     0.3400    -7.1810 ha         1 H38       0.146000
     42 H14          0.9350     1.5710   -10.3130 hn         1 H38       0.445800
     43 H15         -2.6060     1.7020    -8.3360 hn         1 H38       0.413400
     44 H16         -2.6040     0.5200   -14.0440 h4         1 H38       0.173500
     45 H17         -4.4830     0.7930   -12.3700 ha         1 H38       0.152500
     46 H18         -3.7090     1.3110    -9.9910 ha         1 H38       0.165500
@<TRIPOS>BOND
     1    27    26 2
     2    27    28 1
     3    26    25 1
     4    28    24 2
     5    25    24 1
     6    24    22 1
     7    22    23 2
     8    22    21 1
     9    18    17 ar
    10    18    20 ar
    11    17    16 ar
    12    20    21 1
    13    20    19 ar
    14    16    15 ar
    15    13    12 ar
    16    13    14 ar
    17    19    15 ar
    18    15    14 1
    19    12    11 ar
    20    14    10 ar
    21    11     9 ar
    22    10     9 ar
    23     9     8 1
    24     8     2 1
    25     2     3 1
    26     2     1 2
    27     3     7 2
    28     3     4 1
    29     7     6 1
    30     4     5 1
    31     6     5 2
    32     1    29 1
    33     5    30 1
    34     6    31 1
    35     7    32 1
    36     8    33 1
    37    10    34 1
    38    11    35 1
    39    12    36 1
    40    13    37 1
    41    16    38 1
    42    17    39 1
    43    18    40 1
    44    19    41 1
    45    21    42 1
    46    23    43 1
    47    26    44 1
    48    27    45 1
    49    28    46 1
@<TRIPOS>SUBSTRUCTURE
     1 H38         1 TEMP              0 ****  ****    0 ROOT
