@<TRIPOS>MOLECULE
molecule
   53    55     1     0     0
SMALL
bcc


@<TRIPOS>ATOM
      1 C1           0.0000     0.0000     0.0000 ca         1 H39      -0.141000
      2 C2           1.3850     0.0000     0.0000 ca         1 H39      -0.141000
      3 C3          -3.4750     6.9820    -2.8420 cc         1 H39      -0.184000
      4 C4          -2.8630     7.6920    -3.8120 cd         1 H39      -0.175300
      5 C5          -1.3640     7.3080    -2.2260 cd         1 H39      -0.145300
      6 C6          -0.0050     0.0110     2.4030 ca         1 H39      -0.055600
      7 C7          -0.6970     0.0050     1.1880 ca         1 H39      -0.073300
      8 C8          -2.5220     6.7400    -1.8320 cc         1 H39      -0.135300
      9 C9           2.0850     0.0000     1.1950 ca         1 H39       0.021100
     10 C10          1.3940     0.0000     2.4050 ca         1 H39       0.067100
     11 C11         -0.7470     0.0170     3.6770 c          1 H39       0.888200
     12 C12         -2.4600     4.5270    -0.7610 c          1 H39       0.647100
     13 C13          3.5450    -0.4120     2.8340 c3         1 H39       0.326200
     14 C14         -6.2610     2.8540     1.7970 c3         1 H39      -0.091600
     15 C15         -4.1590     3.3200     3.0650 c3         1 H39      -0.091600
     16 C16         -2.7560     5.9880    -0.5470 c3         1 H39      -0.080100
     17 C17         -2.2040     0.0070     1.1780 c3         1 H39      -0.016100
     18 C18         -4.2380     1.4350     1.4260 c3         1 H39      -0.067400
     19 C19         -2.3120     2.2330     0.0500 c3         1 H39       0.109000
     20 C20         -4.7330     2.8510     1.7250 c3         1 H39      -0.102700
     21 C21         -2.7140     1.4430     1.2970 c3         1 H39      -0.093700
     22 N22         -1.5690     7.8980    -3.4380 na         1 H39      -0.166100
     23 N23         -2.6000     3.6550     0.2570 ns         1 H39      -0.584900
     24 O24         -0.9990     1.1830     4.3050 o          1 H39      -0.829300
     25 O25         -1.1310    -1.0290     4.1610 o          1 H39      -0.829300
     26 O26         -2.0950     4.1340    -1.8490 o          1 H39      -0.614100
     27 O27          3.4250    -0.0010     1.4590 os         1 H39      -0.348900
     28 O28          2.2980     0.0020     3.4240 os         1 H39      -0.299900
     29 H1          -0.5380    -0.0040    -0.9400 ha         1 H39       0.123000
     30 H2           1.9240    -0.0040    -0.9400 ha         1 H39       0.119000
     31 H5          -0.4330     7.3020    -1.6720 h4         1 H39       0.165000
     32 H13          3.6560    -1.4880     2.8990 h2         1 H39       0.051200
     33 H13A         4.3760     0.0930     3.3100 h2         1 H39       0.051200
     34 H14         -6.5880     2.1660     2.5680 hc         1 H39       0.033867
     35 H14A        -6.6100     3.8520     2.0320 hc         1 H39       0.033867
     36 H14B        -6.6680     2.5450     0.8420 hc         1 H39       0.033867
     37 H15         -4.5210     4.3170     3.2830 hc         1 H39       0.033867
     38 H15A        -3.0780     3.3310     3.0100 hc         1 H39       0.033867
     39 H15B        -4.4740     2.6420     3.8490 hc         1 H39       0.033867
     40 H16         -3.7890     6.1060    -0.2420 hc         1 H39       0.058700
     41 H16A        -2.1050     6.3800     0.2250 hc         1 H39       0.058700
     42 H17         -2.5710    -0.5770     2.0130 hc         1 H39       0.056200
     43 H17A        -2.5590    -0.4270     0.2510 hc         1 H39       0.056200
     44 H18         -4.5290     0.7740     2.2330 hc         1 H39       0.041200
     45 H18A        -4.6770     1.0880     0.4990 hc         1 H39       0.041200
     46 H19         -1.2530     2.1030    -0.1350 h1         1 H39       0.051700
     47 H19A        -2.8750     1.8720    -0.8030 h1         1 H39       0.051700
     48 H20         -4.4070     3.5210     0.9390 hc         1 H39       0.059700
     49 H21         -2.2800     1.9080     2.1740 hc         1 H39       0.111700
     50 HN23        -2.8390     3.9880     1.1700 hn         1 H39       0.327500
     51 HN22        -0.8810     8.3960    -3.9680 hn         1 H39       0.285700
     52 H3          -4.5080     6.6580    -2.8390 ha         1 H39       0.144000
     53 H4          -3.3220     8.0400    -4.7290 h4         1 H39       0.154000
@<TRIPOS>BOND
     1     7     1 ar
     2     1     2 ar
     3     1    29 1
     4     9     2 ar
     5     2    30 1
     6     4     3 2
     7     3     8 1
     8     3    52 1
     9     4    22 1
    10     4    53 1
    11    22     5 1
    12     5     8 2
    13     5    31 1
    14    11     6 1
    15     6     7 ar
    16     6    10 ar
    17    17     7 1
    18     8    16 1
    19    10     9 ar
    20     9    27 1
    21    28    10 1
    22    25    11 1
    23    24    11 1
    24    16    12 1
    25    12    26 2
    26    12    23 1
    27    28    13 1
    28    13    27 1
    29    13    32 1
    30    13    33 1
    31    20    14 1
    32    14    34 1
    33    14    35 1
    34    14    36 1
    35    15    20 1
    36    15    37 1
    37    15    38 1
    38    15    39 1
    39    16    40 1
    40    16    41 1
    41    17    21 1
    42    17    42 1
    43    17    43 1
    44    20    18 1
    45    18    21 1
    46    18    44 1
    47    18    45 1
    48    23    19 1
    49    21    19 1
    50    19    46 1
    51    19    47 1
    52    20    48 1
    53    21    49 1
    54    23    50 1
    55    22    51 1
@<TRIPOS>SUBSTRUCTURE
     1 H39         1 TEMP              0 ****  ****    0 ROOT
