@<TRIPOS>MOLECULE
H3K
   43    45     1     0     0
SMALL
bcc


@<TRIPOS>ATOM
      1 N6          -1.2710    -0.0130    -2.2300 n1         1 H3K      -0.358800
      2 C17         -0.7160    -0.0000    -1.2400 cg         1 H3K       0.124800
      3 C15          0.0000     0.0000     0.0000 ca         1 H3K       0.338000
      4 N4           1.3320     0.0000     0.0000 nb         1 H3K      -0.486000
      5 C14          1.9910     0.0000     1.1400 ca         1 H3K       0.231900
      6 C16         -0.6960     0.0070     1.2100 ca         1 H3K       0.359900
      7 N5          -0.0340     0.0080     2.3520 nb         1 H3K      -0.525000
      8 C13          1.2930     0.0020     2.3500 ca         1 H3K       0.275900
      9 N3           1.9900     0.0010     3.5530 ns         1 H3K      -0.112400
     10 C12          1.3210     0.1050     4.7180 c          1 H3K       0.532100
     11 O2           0.1060     0.1050     4.7230 o          1 H3K      -0.620100
     12 N2           2.0000     0.2060     5.8780 ns         1 H3K      -0.030100
     13 C11          1.3100     0.1960     7.0980 ca         1 H3K      -0.047400
     14 C10          0.0660    -0.4120     7.1870 ca         1 H3K      -0.098000
     15 C9          -0.6130    -0.4230     8.3920 ca         1 H3K       0.056100
     16 Br          -2.3090    -1.2510     8.5110 br         1 H3K      -0.122100
     17 C8          -0.0550     0.1710     9.5100 ca         1 H3K      -0.093000
     18 C7           1.1840     0.7780     9.4290 ca         1 H3K      -0.107000
     19 C6           1.8740     0.7880     8.2260 ca         1 H3K      -0.028400
     20 N1           3.1310     1.3990     8.1440 nh         1 H3K      -0.408000
     21 C4           3.0340     2.8420     8.3960 c3         1 H3K       0.147800
     22 C3           4.3970     3.4960     8.1560 c3         1 H3K      -0.021400
     23 C2           5.4330     2.8640     9.0900 c3         1 H3K      -0.047400
     24 C5           4.0860     0.7620     9.0600 c3         1 H3K       0.123800
     25 C1           5.4800     1.3530     8.8390 c3         1 H3K       0.192100
     26 O1           6.4040     0.7490     9.7460 oh         1 H3K      -0.581800
     27 H16          3.0740    -0.0030     1.1400 h4         1 H3K      -0.005900
     28 H17         -1.7800     0.0130     1.2110 h4         1 H3K       0.001100
     29 H15          2.9880    -0.0710     3.5530 hn         1 H3K       0.168500
     30 H14          3.0000     0.2450     5.8700 hn         1 H3K       0.173500
     31 H13         -0.3470    -0.9290     6.3290 ha         1 H3K       0.168000
     32 H12         -0.5920     0.1620    10.4510 ha         1 H3K       0.118000
     33 H11          1.6190     1.2400    10.3070 ha         1 H3K       0.116000
     34 H7           2.7310     3.0080     9.4230 h1         1 H3K       0.018700
     35 H8           2.3040     3.2760     7.7250 h1         1 H3K       0.018700
     36 H6           4.3280     4.5580     8.3610 hc         1 H3K       0.019700
     37 H5           4.6960     3.3390     7.1270 hc         1 H3K       0.019700
     38 H4           6.4070     3.2930     8.8900 hc         1 H3K       0.025200
     39 H3           5.1530     3.0510    10.1190 hc         1 H3K       0.025200
     40 H10          4.1140    -0.3040     8.8670 h1         1 H3K       0.023700
     41 H9           3.7780     0.9410    10.0830 h1         1 H3K       0.023700
     42 H1           5.7920     1.1670     7.8180 h1         1 H3K       0.002700
     43 H2           7.0760     0.3010     9.2580 ho         1 H3K       0.390000
@<TRIPOS>BOND
     1     1     2 3   
     2     2     3 1   
     3     3     4 ar  
     4     3     6 ar  
     5     4     5 ar  
     6     5     8 ar  
     7     5    27 1   
     8     6     7 ar  
     9     6    28 1   
    10     7     8 ar  
    11     8     9 1   
    12     9    10 1   
    13     9    29 1   
    14    10    11 2   
    15    10    12 1   
    16    12    13 1   
    17    12    30 1   
    18    13    14 ar  
    19    13    19 ar  
    20    14    15 ar  
    21    14    31 1   
    22    15    16 1   
    23    15    17 ar  
    24    17    18 ar  
    25    17    32 1   
    26    18    19 ar  
    27    18    33 1   
    28    19    20 1   
    29    20    21 1   
    30    20    24 1   
    31    21    22 1   
    32    21    34 1   
    33    21    35 1   
    34    22    23 1   
    35    22    36 1   
    36    22    37 1   
    37    23    25 1   
    38    23    38 1   
    39    23    39 1   
    40    24    25 1   
    41    24    40 1   
    42    24    41 1   
    43    25    26 1   
    44    25    42 1   
    45    26    43 1   
@<TRIPOS>SUBSTRUCTURE
     1 H3K         1 TEMP              0 ****  ****    0 ROOT
