@<TRIPOS>MOLECULE
molecule
   14    14     1     0     0
SMALL
bcc


@<TRIPOS>ATOM
      1 O1           0.0000     0.0000     0.0000 o          1 H3M      -0.553500
      2 C1           1.2160     0.0000     0.0000 c          1 H3M       0.724800
      3 C4           2.0570     0.0000     1.2010 ce         1 H3M      -0.181400
      4 C5           1.5470    -0.0000     2.6190 c3         1 H3M      -0.031900
      5 C3           3.3390     0.0000     0.8450 c2         1 H3M      -0.164200
      6 C2           3.3760    -0.0000    -0.6650 c3         1 H3M       0.351100
      7 O2           1.9880    -0.0060    -1.1020 os         1 H3M      -0.394900
      8 O3           4.0420     1.1710    -1.1410 oh         1 H3M      -0.572800
      9 H2           2.3790     0.1270     3.3010 hc         1 H3M       0.057033
     10 H3           0.8440     0.8130     2.7500 hc         1 H3M       0.057033
     11 H4           1.0520    -0.9420     2.8240 hc         1 H3M       0.057033
     12 H5           4.0560    -0.5870     1.4050 ha         1 H3M       0.168000
     13 H7           3.8790    -0.8910    -1.0220 h2         1 H3M       0.069700
     14 H8           4.6330     0.9360    -1.8370 ho         1 H3M       0.415000
@<TRIPOS>BOND
     1     4     3 1
     2     5     3 2
     3     5     6 1
     4     3     2 1
     5     6     8 1
     6     6     7 1
     7     2     1 2
     8     2     7 1
     9     4     9 1
    10     4    10 1
    11     4    11 1
    12     5    12 1
    13     6    13 1
    14     8    14 1
@<TRIPOS>SUBSTRUCTURE
     1 H3M         1 TEMP              0 ****  ****    0 ROOT
