@<TRIPOS>MOLECULE
H3M
   14    14     1     0     0
SMALL
bcc


@<TRIPOS>ATOM
      1 O1          0.0910    0.0870   -0.2120 o         1 H3M     -0.543500
      2 C1          1.2880    0.0130    0.0180 c         1 H3M      0.714800
      3 C4          2.1150   -0.0520    1.2620 ce        1 H3M     -0.153400
      4 C5          1.5060   -0.0340    2.5930 c3        1 H3M     -0.047900
      5 C3          3.4140   -0.1200    0.8990 c2        1 H3M     -0.145200
      6 C2          3.5040   -0.1270   -0.6200 c3        1 H3M      0.350100
      7 O2          2.1360   -0.0400   -1.0890 os        1 H3M     -0.460900
      8 O3          4.1240    1.0400   -1.0810 oh        1 H3M     -0.593800
      9 H2          2.2850   -0.0820    3.3930 hc        1 H3M      0.061033
     10 H3          0.8120   -0.9060    2.7130 hc        1 H3M      0.061033
     11 H4          0.9070    0.9030    2.7290 hc        1 H3M      0.061033
     12 H5          4.3090   -0.1540    1.5180 ha        1 H3M      0.175000
     13 H7          3.9590   -1.0550   -1.0530 h2        1 H3M      0.085700
     14 H8          3.8310    1.1810   -1.9930 ho        1 H3M      0.436000
@<TRIPOS>BOND
     1    1    2 2   
     2    2    3 1   
     3    2    7 1   
     4    3    4 1   
     5    3    5 2   
     6    4    9 1   
     7    4   10 1   
     8    4   11 1   
     9    5    6 1   
    10    5   12 1   
    11    6    7 1   
    12    6    8 1   
    13    6   13 1   
    14    8   14 1   
@<TRIPOS>SUBSTRUCTURE
     1 H3M         1 TEMP              0 ****  ****    0 ROOT
