@<TRIPOS>MOLECULE
molecule
   27    28     1     0     0
SMALL
bcc


@<TRIPOS>ATOM
      1 OAA          0.0000     0.0000     0.0000 oh         1 H3P      -0.485100
      2 CAP          1.3600     0.0000     0.0000 ca         1 H3P       0.141100
      3 CAL          2.0550     0.0000     1.2010 ca         1 H3P      -0.032600
      4 ClAC         1.1890    -0.0010     2.7060 cl         1 H3P      -0.086400
      5 CAI          3.4370    -0.0000     1.1990 ca         1 H3P      -0.084000
      6 CAN          4.1280    -0.0010    -0.0000 ca         1 H3P       0.012900
      7 ClAE         5.8640    -0.0010    -0.0020 cl         1 H3P      -0.076400
      8 CAR          3.4360     0.0010    -1.2000 ca         1 H3P       0.064400
      9 ClAG         4.3050     0.0010    -2.7030 cl         1 H3P      -0.049900
     10 CAT          2.0530    -0.0050    -1.2010 ca         1 H3P      -0.084300
     11 CAK          1.3000    -0.0110    -2.5060 c3         1 H3P       0.024200
     12 CAU          0.8950    -1.4220    -2.8460 ca         1 H3P      -0.084300
     13 CAS         -0.3750    -1.8710    -2.5330 ca         1 H3P       0.064400
     14 ClAH        -1.5020    -0.8100    -1.7470 cl         1 H3P      -0.049900
     15 CAO         -0.7480    -3.1670    -2.8460 ca         1 H3P       0.012900
     16 ClAF        -2.3430    -3.7300    -2.4520 cl         1 H3P      -0.076400
     17 CAJ          0.1480    -4.0150    -3.4720 ca         1 H3P      -0.084000
     18 CAM          1.4180    -3.5700    -3.7860 ca         1 H3P      -0.032600
     19 ClAD         2.5430    -4.6340    -4.5720 cl         1 H3P      -0.086400
     20 CAQ          1.7930    -2.2690    -3.4780 ca         1 H3P       0.141100
     21 OAB          3.0390    -1.8260    -3.7920 oh         1 H3P      -0.485100
     22 HOAA        -0.3140     0.6780     0.5750 ho         1 H3P       0.425000
     23 HAI          3.9800    -0.0000     2.1360 ha         1 H3P       0.164000
     24 HAK          0.4150     0.6070    -2.4150 hc         1 H3P       0.078700
     25 HAKA         1.9350     0.3810    -3.2910 hc         1 H3P       0.078700
     26 HAJ         -0.1460    -5.0290    -3.7160 ha         1 H3P       0.164000
     27 HOAB         3.2260    -2.0270    -4.6940 ho         1 H3P       0.425000
@<TRIPOS>BOND
     1     1     2 1
     2     1    22 1
     3     3     2 ar
     4     2    10 ar
     5     4     3 1
     6     3     5 ar
     7     5     6 ar
     8     5    23 1
     9     6     8 ar
    10     6     7 1
    11    10     8 ar
    12     8     9 1
    13    10    11 1
    14    11    12 1
    15    11    24 1
    16    11    25 1
    17    20    12 ar
    18    12    13 ar
    19    13    15 ar
    20    13    14 1
    21    17    15 ar
    22    15    16 1
    23    18    17 ar
    24    17    26 1
    25    19    18 1
    26    20    18 ar
    27    21    20 1
    28    21    27 1
@<TRIPOS>SUBSTRUCTURE
     1 H3P         1 TEMP              0 ****  ****    0 ROOT
