@<TRIPOS>MOLECULE
H3P
   27    28     1     0     0
SMALL
bcc


@<TRIPOS>ATOM
      1 OAA         0.2520   -0.5880   -0.0210 oh        1 H3P     -0.479100
      2 CAP         1.5850   -0.2660   -0.0260 ca        1 H3P      0.150100
      3 CAL         2.3650   -0.2230    1.1440 ca        1 H3P     -0.069600
      4 CLAC        1.6960   -0.6220    2.6560 cl        1 H3P     -0.079400
      5 CAI         3.7050    0.1540    1.0760 ca        1 H3P     -0.074000
      6 CAN         4.2640    0.5000   -0.1540 ca        1 H3P     -0.016600
      7 CLAE        5.8940    0.9730   -0.1930 cl        1 H3P     -0.064400
      8 CAR         3.4900    0.4560   -1.3280 ca        1 H3P      0.066400
      9 CLAG        4.2090    0.9250   -2.7930 cl        1 H3P     -0.052400
     10 CAT         2.1480    0.0480   -1.2850 ca        1 H3P     -0.075300
     11 CAK         1.2950   -0.0040   -2.5100 c3        1 H3P      0.020200
     12 CAU         0.7670   -1.3610   -2.8410 ca        1 H3P     -0.075300
     13 CAS        -0.6080   -1.6340   -2.8910 ca        1 H3P      0.066400
     14 CLAH       -1.7480   -0.4130   -2.5810 cl        1 H3P     -0.052400
     15 CAO        -1.0720   -2.9220   -3.2120 ca        1 H3P     -0.016600
     16 CLAF       -2.7330   -3.2720   -3.2580 cl        1 H3P     -0.064400
     17 CAJ        -0.1730   -3.9470   -3.5040 ca        1 H3P     -0.074000
     18 CAM         1.1970   -3.6870   -3.4930 ca        1 H3P     -0.069600
     19 CLAD        2.2780   -4.9440   -3.8710 cl        1 H3P     -0.079400
     20 CAQ         1.6670   -2.4000   -3.1750 ca        1 H3P      0.150100
     21 OAB         2.9980   -2.0690   -3.1840 oh        1 H3P     -0.479100
     22 HOAA       -0.0100   -0.8060    0.8890 ho        1 H3P      0.435000
     23 HAI         4.3190    0.1840    1.9920 ha        1 H3P      0.167000
     24 HAK         1.8800    0.3540   -3.4030 hc        1 H3P      0.082700
     25 HAKA        0.4430    0.7150   -2.3530 hc        1 H3P      0.082700
     26 HAJ        -0.5420   -4.9560   -3.7500 ha        1 H3P      0.167000
     27 HOAB        3.5130   -2.8650   -3.4010 ho        1 H3P      0.435000
@<TRIPOS>BOND
     1    1    2 1   
     2    1   22 1   
     3    2    3 ar  
     4    2   10 ar  
     5    3    4 1   
     6    3    5 ar  
     7    5    6 ar  
     8    5   23 1   
     9    6    7 1   
    10    6    8 ar  
    11    8    9 1   
    12    8   10 ar  
    13   10   11 1   
    14   11   12 1   
    15   11   24 1   
    16   11   25 1   
    17   12   13 ar  
    18   12   20 ar  
    19   13   14 1   
    20   13   15 ar  
    21   15   16 1   
    22   15   17 ar  
    23   17   18 ar  
    24   17   26 1   
    25   18   19 1   
    26   18   20 ar  
    27   20   21 1   
    28   21   27 1   
@<TRIPOS>SUBSTRUCTURE
     1 H3P         1 TEMP              0 ****  ****    0 ROOT
