@<TRIPOS>MOLECULE
H3R
   22    23     1     0     0
SMALL
bcc


@<TRIPOS>ATOM
      1 C1         -0.0210    0.0000   -0.0160 cc        1 H3R      0.304600
      2 C2         -0.9330    0.0000   -1.1730 c3        1 H3R     -0.121400
      3 C3          1.4240   -0.0010   -0.0980 cc        1 H3R     -0.280300
      4 C7          3.4930   -0.0010    3.1350 ca        1 H3R     -0.119500
      5 C8          4.3010   -0.0020    0.8560 ca        1 H3R     -0.119500
      6 C9          4.8090   -0.0020    3.5960 ca        1 H3R     -0.125500
      7 C10         5.6120   -0.0030    1.3220 ca        1 H3R     -0.125500
      8 C11         5.8710   -0.0030    2.6930 ca        1 H3R     -0.125000
      9 C12         1.8710   -0.0000    1.2390 cd        1 H3R     -0.056300
     10 N13         0.7050    0.0010    2.0250 na        1 H3R     -0.011600
     11 C4          3.2240   -0.0010    1.7580 ca        1 H3R     -0.012000
     12 N3         -0.4060    0.0020    1.2970 nd        1 H3R     -0.507800
     13 H21C       -0.7460    0.9100   -1.7980 hc        1 H3R      0.049700
     14 H22C       -0.7420   -0.9060   -1.8000 hc        1 H3R      0.049700
     15 H23C       -2.0060   -0.0020   -0.8620 hc        1 H3R      0.049700
     16 H3          2.0190   -0.0020   -1.0020 ha        1 H3R      0.164000
     17 H9          5.0070   -0.0010    4.6780 ha        1 H3R      0.134500
     18 H8          4.1040   -0.0020   -0.2270 ha        1 H3R      0.131500
     19 H10         6.4470   -0.0030    0.6050 ha        1 H3R      0.134500
     20 H11         6.9070   -0.0030    3.0600 ha        1 H3R      0.135000
     21 H13         0.6560    0.0020    3.0160 hn        1 H3R      0.319700
     22 H7          2.6770    0.0000    3.8720 ha        1 H3R      0.131500
@<TRIPOS>BOND
     1    1    2 1   
     2    1    3 1   
     3    1   12 2   
     4    2   13 1   
     5    2   14 1   
     6    2   15 1   
     7    3    9 2   
     8    3   16 1   
     9    4    6 ar  
    10    4   11 ar  
    11    4   22 1   
    12    5    7 ar  
    13    5   11 ar  
    14    5   18 1   
    15    6    8 ar  
    16    6   17 1   
    17    7    8 ar  
    18    7   19 1   
    19    8   20 1   
    20    9   10 1   
    21    9   11 1   
    22   10   12 1   
    23   10   21 1   
@<TRIPOS>SUBSTRUCTURE
     1 H3R         1 TEMP              0 ****  ****    0 ROOT
