@<TRIPOS>MOLECULE
molecule
   22    23     1     0     0
SMALL
bcc


@<TRIPOS>ATOM
      1 C1           0.0000     0.0000     0.0000 cc         1 H3R       0.340600
      2 C2          -0.8790     0.0000    -1.2240 c3         1 H3R      -0.111400
      3 C3           1.3940     0.0000     0.0000 cc         1 H3R      -0.330300
      4 C7           3.4980    -0.0010     3.1360 ca         1 H3R      -0.114000
      5 C8           4.2630    -0.0020     0.8490 ca         1 H3R      -0.114000
      6 C9           4.8090    -0.0020     3.5680 ca         1 H3R      -0.124000
      7 C10          5.5700    -0.0030     1.2930 ca         1 H3R      -0.124000
      8 C11          5.8420    -0.0030     2.6500 ca         1 H3R      -0.123000
      9 C12          1.8140     0.0000     1.3010 cd         1 H3R      -0.022300
     10 N13          0.6990    -0.0000     2.0860 na         1 H3R      -0.043600
     11 C4           3.2170    -0.0010     1.7700 ca         1 H3R      -0.022000
     12 N3          -0.4180     0.0050     1.2410 nd         1 H3R      -0.507800
     13 H21C        -1.9200    -0.0020    -0.9210 hc         1 H3R       0.050033
     14 H22C        -0.6770     0.8860    -1.8140 hc         1 H3R       0.050033
     15 H23C        -0.6740    -0.8830    -1.8160 hc         1 H3R       0.050033
     16 H3           2.0320     0.0000    -0.8760 ha         1 H3R       0.154000
     17 H9           5.0280    -0.0020     4.6290 ha         1 H3R       0.133500
     18 H8           4.0510    -0.0020    -0.2130 ha         1 H3R       0.131000
     19 H10          6.3840    -0.0030     0.5780 ha         1 H3R       0.133500
     20 H11          6.8700    -0.0030     2.9940 ha         1 H3R       0.132000
     21 H13          0.6820     0.0010     3.0870 hn         1 H3R       0.328700
     22 H7           2.6890    -0.0000     3.8570 ha         1 H3R       0.131000
@<TRIPOS>BOND
     1     1     2 1
     2     1     3 1
     3     1    12 2
     4     3     9 2
     5     4     6 ar
     6     4    11 ar
     7     5     7 ar
     8     5    11 ar
     9     6     8 ar
    10     7     8 ar
    11     9    10 1
    12     9    11 1
    13    10    12 1
    14     2    13 1
    15     2    14 1
    16     2    15 1
    17     3    16 1
    18     4    22 1
    19     6    17 1
    20     5    18 1
    21     7    19 1
    22     8    20 1
    23    10    21 1
@<TRIPOS>SUBSTRUCTURE
     1 H3R         1 TEMP              0 ****  ****    0 ROOT
