@<TRIPOS>MOLECULE
H41
   55    57     1     0     0
SMALL
bcc


@<TRIPOS>ATOM
      1 C4           0.0000     0.0000     0.0000 ca         1 H41      -0.061000
      2 C5           1.3800     0.0000     0.0000 ca         1 H41      -0.043600
      3 Cl10         2.2470     0.0020    -1.5040 cl         1 H41       0.008600
      4 C6           2.0750     0.0000     1.1990 ca         1 H41      -0.042600
      5 Cl7          3.8110     0.0020     1.1920 cl         1 H41       0.006600
      6 C8           1.3910    -0.0010     2.4030 ca         1 H41      -0.115000
      7 C9           0.0120    -0.0020     2.4160 ca         1 H41      -0.088000
      8 C3          -0.6960    -0.0020     1.2110 ca         1 H41      -0.082900
      9 C2          -2.1700    -0.0020     1.2180 ce         1 H41       0.381900
     10 N11         -2.9190     0.0300     0.1700 n2         1 H41      -0.460400
     11 C1          -3.0360    -0.0450     2.4570 c3         1 H41      -0.052600
     12 N29         -2.7920     1.1300     3.2970 n          1 H41      -0.204800
     13 C34         -2.8950     2.4740     2.7240 c3         1 H41       0.075000
     14 C35         -4.2810     3.0510     3.0200 c3         1 H41      -0.472100
     15 C30         -2.4740     0.9750     4.5970 c          1 H41       0.602100
     16 O33         -2.3880    -0.1370     5.0720 o          1 H41      -0.590100
     17 C31         -2.2220     2.1840     5.4600 c3         1 H41       0.117400
     18 O32         -1.9040     1.7630     6.7880 oh         1 H41      -0.630800
     19 C13         -4.4760    -0.0260     1.9050 c3         1 H41       0.106800
     20 N12         -4.2850     0.0220     0.4460 nh         1 H41      -0.114700
     21 C14         -5.2840     0.0500    -0.4860 c2         1 H41       0.614100
     22 N26         -6.5480     0.0390    -0.1000 ne         1 H41      -0.492700
     23 C27         -7.5350    -0.1090    -1.0160 cg         1 H41       0.306800
     24 N28         -8.3730    -0.2190    -1.7760 n1         1 H41      -0.445800
     25 N15         -4.9760     0.0900    -1.8190 nu         1 H41      -0.300600
     26 C16         -5.8760     0.6560    -2.7280 ca         1 H41       0.065600
     27 C21         -6.0120     0.1140    -3.9990 ca         1 H41      -0.176000
     28 C17         -6.6390     1.7570    -2.3590 ca         1 H41      -0.144000
     29 C18         -7.5270     2.3150    -3.2570 ca         1 H41      -0.036000
     30 C19         -7.6600     1.7810    -4.5240 ca         1 H41      -0.221000
     31 C20         -6.9050     0.6780    -4.8970 ca         1 H41       0.131100
     32 O22         -7.0410     0.1490    -6.1420 os         1 H41      -0.325900
     33 C23         -7.9790     0.7810    -7.0150 c3         1 H41       0.562700
     34 F25         -9.2560     0.7300    -6.4440 f          1 H41      -0.224800
     35 F24         -7.6090     2.1160    -7.2120 f          1 H41      -0.224800
     36 H4          -0.5420    -0.3340    -0.8770 ha         1 H41       0.135000
     37 H8           2.0420     0.0100     3.2690 ha         1 H41       0.125000
     38 H9          -0.1520     0.0360     3.4860 ha         1 H41       0.140000
     39 H1          -2.8570    -0.9590     3.0110 h1         1 H41       0.097700
     40 H131        -5.1450    -0.8750     1.8360 h1         1 H41       0.061200
     41 H132        -4.8570     0.7180     2.5940 h1         1 H41       0.061200
     42 H341        -2.2610     2.6660     1.8670 h1         1 H41       0.027700
     43 H342        -2.2450     2.9470     3.4490 h1         1 H41       0.027700
     44 H351        -4.3030     2.0070     2.7330 hc         1 H41       0.156033
     45 H352        -4.1570     3.8410     3.7510 hc         1 H41       0.156033
     46 H353        -5.0700     2.8480     3.7340 hc         1 H41       0.156033
     47 H311        -3.1560     2.6840     5.6890 h1         1 H41       0.040700
     48 H312        -1.2820     2.7170     5.5340 h1         1 H41       0.040700
     49 H32         -1.8050     2.4240     7.4540 ho         1 H41       0.410000
     50 H15         -4.1560    -0.3130    -2.2270 hn         1 H41       0.305800
     51 H21         -5.5600    -0.5540    -4.7220 ha         1 H41       0.147000
     52 H17         -6.5170     2.4730    -1.5550 ha         1 H41       0.133000
     53 H18         -8.0730     3.2420    -3.3800 ha         1 H41       0.120000
     54 H19         -8.3470     2.2300    -5.2310 ha         1 H41       0.132000
     55 H23         -8.3560    -0.0160    -7.6450 h3         1 H41       0.096700
@<TRIPOS>BOND
     1     1     2 ar  
     2     1     8 ar  
     3     1    36 1   
     4     2     3 1   
     5     2     4 ar  
     6     4     5 1   
     7     4     6 ar  
     8     6     7 ar  
     9     6    37 1   
    10     7     8 ar  
    11     7    38 1   
    12     8     9 1   
    13     9    10 2   
    14     9    11 1   
    15    10    20 1   
    16    11    12 1   
    17    11    19 1   
    18    11    39 1   
    19    12    13 1   
    20    12    15 1   
    21    13    14 1   
    22    13    42 1   
    23    13    43 1   
    24    14    44 1   
    25    14    45 1   
    26    14    46 1   
    27    15    16 2   
    28    15    17 1   
    29    17    18 1   
    30    17    47 1   
    31    17    48 1   
    32    18    49 1   
    33    19    20 1   
    34    19    40 1   
    35    19    41 1   
    36    20    21 1   
    37    21    22 2   
    38    21    25 1   
    39    22    23 1   
    40    23    24 3   
    41    25    26 1   
    42    25    50 1   
    43    26    27 ar  
    44    26    28 ar  
    45    27    31 ar  
    46    27    51 1   
    47    28    29 ar  
    48    28    52 1   
    49    29    30 ar  
    50    29    53 1   
    51    30    31 ar  
    52    30    54 1   
    53    31    32 1   
    54    32    33 1   
    55    33    34 1   
    56    33    35 1   
    57    33    55 1   
@<TRIPOS>SUBSTRUCTURE
     1 H41         1 TEMP              0 ****  ****    0 ROOT
