@<TRIPOS>MOLECULE
molecule
   55    57     1     0     0
SMALL
bcc


@<TRIPOS>ATOM
      1 C4           0.0000     0.0000     0.0000 ca         1 H41      -0.083000
      2 C5           1.3800     0.0000     0.0000 ca         1 H41       0.002400
      3 Cl10         2.2470     0.0020    -1.5040 cl         1 H41      -0.076400
      4 C6           2.0750     0.0000     1.1990 ca         1 H41       0.049400
      5 Cl7          3.8110     0.0020     1.1920 cl         1 H41      -0.078400
      6 C8           1.3910    -0.0010     2.4030 ca         1 H41      -0.123000
      7 C9           0.0120    -0.0020     2.4160 ca         1 H41      -0.096000
      8 C3          -0.6960    -0.0020     1.2110 ca         1 H41      -0.086900
      9 C2          -2.1700    -0.0020     1.2180 ce         1 H41       0.382900
     10 N11         -2.9190     0.0300     0.1700 n2         1 H41      -0.381400
     11 C1          -3.0360    -0.0450     2.4570 c3         1 H41       0.018400
     12 N29         -2.7920     1.1300     3.2970 n          1 H41      -0.471800
     13 C34         -2.8950     2.4740     2.7240 c3         1 H41       0.089000
     14 C35         -4.2810     3.0510     3.0200 c3         1 H41      -0.183100
     15 C30         -2.4740     0.9750     4.5970 c          1 H41       0.705100
     16 O33         -2.3880    -0.1370     5.0720 o          1 H41      -0.563100
     17 C31         -2.2220     2.1840     5.4600 c3         1 H41       0.040400
     18 O32         -1.9040     1.7630     6.7880 oh         1 H41      -0.587800
     19 C13         -4.4760    -0.0260     1.9050 c3         1 H41       0.184800
     20 N12         -4.2850     0.0220     0.4460 nh         1 H41      -0.457700
     21 C14         -5.2840     0.0500    -0.4860 c2         1 H41       0.945100
     22 N26         -6.5480     0.0390    -0.1000 ne         1 H41      -0.611700
     23 C27         -7.5350    -0.1090    -1.0160 cg         1 H41       0.349800
     24 N28         -8.3770    -0.2320    -1.7700 n1         1 H41      -0.418800
     25 N15         -4.9760     0.0900    -1.8190 nu         1 H41      -0.725600
     26 C16         -5.8760     0.6560    -2.7280 ca         1 H41       0.092600
     27 C21         -6.0120     0.1140    -3.9990 ca         1 H41      -0.144000
     28 C17         -6.6390     1.7570    -2.3590 ca         1 H41      -0.202000
     29 C18         -7.5270     2.3150    -3.2570 ca         1 H41      -0.098000
     30 C19         -7.6600     1.7810    -4.5240 ca         1 H41      -0.199000
     31 C20         -6.9050     0.6780    -4.8970 ca         1 H41       0.197100
     32 O22         -7.0410     0.1490    -6.1420 os         1 H41      -0.339900
     33 C23         -7.9790     0.7810    -7.0150 c3         1 H41       0.583700
     34 F25         -9.2560     0.7300    -6.4440 f          1 H41      -0.243300
     35 F24         -7.6090     2.1160    -7.2120 f          1 H41      -0.243300
     36 H4          -0.2650     0.1080    -1.0450 ha         1 H41       0.168000
     37 H8           1.8550    -0.0820     3.3790 ha         1 H41       0.161000
     38 H9          -0.4460    -0.0710     3.3950 ha         1 H41       0.162000
     39 H1          -2.8570    -0.9590     3.0110 h1         1 H41       0.126700
     40 H131        -4.9460    -0.9170     2.3010 h1         1 H41       0.087200
     41 H132        -4.9340     0.7710     2.4780 h1         1 H41       0.087200
     42 H341        -2.2790     3.2750     3.1140 h1         1 H41       0.064700
     43 H342        -2.8780     2.5720     1.6450 h1         1 H41       0.064700
     44 H351        -4.5720     3.8260     2.3210 hc         1 H41       0.055367
     45 H352        -4.9620     2.5010     2.3820 hc         1 H41       0.055367
     46 H353        -4.6010     2.9160     4.0460 hc         1 H41       0.055367
     47 H311        -1.4440     2.9300     5.3510 h1         1 H41       0.042200
     48 H312        -2.9000     2.9970     5.6920 h1         1 H41       0.042200
     49 H32         -2.1460     2.4780     7.3540 ho         1 H41       0.401000
     50 H15         -4.0880     0.3320    -2.2110 hn         1 H41       0.443800
     51 H21         -5.4550    -0.8140    -4.0520 ha         1 H41       0.162000
     52 H17         -6.2620     2.3310    -1.5210 ha         1 H41       0.133000
     53 H18         -8.0280     3.0400    -2.6280 ha         1 H41       0.153000
     54 H19         -8.5560     2.3460    -4.7540 ha         1 H41       0.183000
     55 H23         -8.1520     0.2510    -7.9440 h3         1 H41       0.123700
@<TRIPOS>BOND
     1     1     2 ar
     2     1     8 ar
     3     2     3 1
     4     2     4 ar
     5     4     5 1
     6     4     6 ar
     7     6     7 ar
     8     7     8 ar
     9     8     9 1
    10     9    10 2
    11     9    11 1
    12    10    20 1
    13    11    12 1
    14    11    19 1
    15    12    13 1
    16    12    15 1
    17    13    14 1
    18    15    16 2
    19    15    17 1
    20    17    18 1
    21    19    20 1
    22    20    21 1
    23    21    22 2
    24    21    25 1
    25    22    23 1
    26    23    24 3
    27    25    26 1
    28    26    27 ar
    29    26    28 ar
    30    27    31 ar
    31    28    29 ar
    32    29    30 ar
    33    30    31 ar
    34    31    32 1
    35    32    33 1
    36    33    34 1
    37    33    35 1
    38     1    36 1
    39     6    37 1
    40     7    38 1
    41    11    39 1
    42    19    40 1
    43    19    41 1
    44    13    42 1
    45    13    43 1
    46    14    44 1
    47    14    45 1
    48    14    46 1
    49    17    47 1
    50    17    48 1
    51    18    49 1
    52    25    50 1
    53    27    51 1
    54    28    52 1
    55    29    53 1
    56    30    54 1
    57    33    55 1
@<TRIPOS>SUBSTRUCTURE
     1 H41         1 TEMP              0 ****  ****    0 ROOT
