@<TRIPOS>MOLECULE
H44
   57    60     1     0     0
SMALL
bcc


@<TRIPOS>ATOM
      1 N26          0.0000     0.0000     0.0000 n2         1 H44      -0.749100
      2 C26          1.3060     0.0000     0.0000 ce         1 H44       0.532800
      3 C25          2.0420     0.0000     1.2740 cc         1 H44      -0.097000
      4 S21          3.7920     0.0070     1.4410 ss         1 H44      -0.222800
      5 C22          3.6770     0.0040     3.1440 cc         1 H44      -0.008100
      6 C23          2.4000    -0.0020     3.5350 cd         1 H44      -0.130000
      7 C24          1.4750     0.0010     2.5140 cd         1 H44      -0.094000
      8 N27          1.9970    -0.0020    -1.1960 nu         1 H44      -0.276600
      9 C31          1.3060    -0.1530    -2.4020 ca         1 H44       0.008600
     10 C36          1.7030     0.5580    -3.5260 ca         1 H44      -0.117000
     11 C35          1.0190     0.4050    -4.7160 ca         1 H44      -0.078500
     12 C34         -0.0610    -0.4560    -4.7890 ca         1 H44      -0.111300
     13 C33         -0.4580    -1.1670    -3.6710 ca         1 H44      -0.078500
     14 C32          0.2240    -1.0210    -2.4800 ca         1 H44      -0.117000
     15 C37         -0.8050    -0.6200    -6.0890 c3         1 H44       0.032900
     16 C38         -0.1720    -1.7530    -6.8990 c3         1 H44       0.143800
     17 N18         -0.8990    -1.9130    -8.1660 n7         1 H44      -0.582200
     18 C17         -0.3180    -2.9940    -8.9730 c3         1 H44       0.200100
     19 C15         -1.0870    -3.1280   -10.2620 ca         1 H44      -0.063300
     20 C14         -0.7010    -2.4040   -11.3740 ca         1 H44      -0.118000
     21 C13         -1.4040    -2.5240   -12.5600 ca         1 H44      -0.072000
     22 C12         -2.4940    -3.3690   -12.6350 ca         1 H44      -0.134000
     23 C11         -2.8840    -4.0980   -11.5190 ca         1 H44       0.006600
     24 C16         -2.1720    -3.9790   -10.3320 ca         1 H44      -0.128000
     25 N07         -3.9870    -4.9540   -11.5920 nu         1 H44      -0.341600
     26 C06         -4.8990    -4.9940   -10.5560 ce         1 H44       0.537800
     27 N06         -4.7980    -4.1520    -9.5620 n2         1 H44      -0.760100
     28 C05         -5.9850    -5.9870   -10.5710 cc         1 H44      -0.055000
     29 S01         -6.2560    -7.1840   -11.8290 ss         1 H44      -0.245800
     30 C02         -7.6230    -7.8010   -11.0140 cc         1 H44      -0.014100
     31 C03         -7.8400    -7.1360    -9.8760 cd         1 H44      -0.134000
     32 C04         -6.9400    -6.1280    -9.6070 cd         1 H44      -0.066000
     33 H1          -0.5000     0.0010     0.8670 hn         1 H44       0.331400
     34 H2           4.5260     0.0040     3.8170 h4         1 H44       0.152000
     35 H3           2.1120    -0.0030     4.5800 ha         1 H44       0.124000
     36 H4           0.4050    -0.0020     2.6800 ha         1 H44       0.129000
     37 H5           2.9850     0.1540    -1.2030 hn         1 H44       0.288800
     38 H6           2.5490     1.2330    -3.4690 ha         1 H44       0.116500
     39 H7           1.3280     0.9610    -5.5940 ha         1 H44       0.105000
     40 H8          -1.3030    -1.8420    -3.7310 ha         1 H44       0.105000
     41 H9          -0.0880    -1.5780    -1.6050 ha         1 H44       0.116500
     42 H10         -1.8420    -0.8580    -5.8840 hc         1 H44       0.023700
     43 H11         -0.7510     0.3020    -6.6540 hc         1 H44       0.023700
     44 H12         -0.2260    -2.6750    -6.3330 h1         1 H44       0.009200
     45 H13          0.8640    -1.5140    -7.1050 h1         1 H44       0.009200
     46 H14         -0.8640    -1.0560    -8.6820 hn         1 H44       0.254800
     47 H16          0.7170    -2.7650    -9.1920 h1         1 H44       0.011200
     48 H17         -0.3730    -3.9250    -8.4220 h1         1 H44       0.011200
     49 H18          0.1530    -1.7400   -11.3170 ha         1 H44       0.105000
     50 H19         -1.0990    -1.9550   -13.4300 ha         1 H44       0.103000
     51 H20         -3.0450    -3.4620   -13.5630 ha         1 H44       0.110000
     52 H21         -2.4740    -4.5460    -9.4590 ha         1 H44       0.134000
     53 H22         -4.1470    -5.4930   -12.4200 hn         1 H44       0.296800
     54 H23         -4.0590    -3.4770    -9.5520 hn         1 H44       0.355400
     55 H24         -8.2330    -8.6210   -11.3730 h4         1 H44       0.150000
     56 H25         -8.6600    -7.3760    -9.2110 ha         1 H44       0.122000
     57 H26         -6.9900    -5.5060    -8.7220 ha         1 H44       0.144000
@<TRIPOS>BOND
     1     1     2 2   
     2     1    33 1   
     3     2     3 1   
     4     2     8 1   
     5     3     4 1   
     6     3     7 2   
     7     4     5 1   
     8     5     6 2   
     9     5    34 1   
    10     6     7 1   
    11     6    35 1   
    12     7    36 1   
    13     8     9 1   
    14     8    37 1   
    15     9    10 ar  
    16     9    14 ar  
    17    10    11 ar  
    18    10    38 1   
    19    11    12 ar  
    20    11    39 1   
    21    12    13 ar  
    22    12    15 1   
    23    13    14 ar  
    24    13    40 1   
    25    14    41 1   
    26    15    16 1   
    27    15    42 1   
    28    15    43 1   
    29    16    17 1   
    30    16    44 1   
    31    16    45 1   
    32    17    18 1   
    33    17    46 1   
    34    18    19 1   
    35    18    47 1   
    36    18    48 1   
    37    19    20 ar  
    38    19    24 ar  
    39    20    21 ar  
    40    20    49 1   
    41    21    22 ar  
    42    21    50 1   
    43    22    23 ar  
    44    22    51 1   
    45    23    24 ar  
    46    23    25 1   
    47    24    52 1   
    48    25    26 1   
    49    25    53 1   
    50    26    27 2   
    51    26    28 1   
    52    27    54 1   
    53    28    29 1   
    54    28    32 2   
    55    29    30 1   
    56    30    31 2   
    57    30    55 1   
    58    31    32 1   
    59    31    56 1   
    60    32    57 1   
@<TRIPOS>SUBSTRUCTURE
     1 H44         1 TEMP              0 ****  ****    0 ROOT
