@<TRIPOS>MOLECULE
H45
   57    60     1     0     0
SMALL
bcc


@<TRIPOS>ATOM
      1 N26          0.0000     0.0000     0.0000 n2         1 H45      -0.750100
      2 C26          1.3070     0.0000     0.0000 ce         1 H45       0.533800
      3 C25          2.0420     0.0000     1.2740 cc         1 H45      -0.097000
      4 S21          3.7920     0.0080     1.4410 ss         1 H45      -0.222800
      5 C22          3.6760     0.0100     3.1430 cc         1 H45      -0.008100
      6 C23          2.3990     0.0040     3.5350 cd         1 H45      -0.130000
      7 C24          1.4750    -0.0010     2.5140 cd         1 H45      -0.094000
      8 N27          1.9970     0.0010    -1.1960 nu         1 H45      -0.277600
      9 C31          1.3060    -0.1280    -2.4040 ca         1 H45       0.012600
     10 C36          1.6850     0.6230    -3.5080 ca         1 H45      -0.136000
     11 C35          1.0000     0.4920    -4.7000 ca         1 H45      -0.074300
     12 C34         -0.0650    -0.3840    -4.7930 ca         1 H45      -0.114000
     13 C33         -0.4470    -1.1340    -3.6950 ca         1 H45      -0.081000
     14 C32          0.2380    -1.0120    -2.5040 ca         1 H45      -0.098000
     15 C37          1.4120     1.3070    -5.8990 c3         1 H45       0.030900
     16 C38          2.4530     0.5310    -6.7090 c3         1 H45       0.143800
     17 N18          2.8550     1.3250    -7.8770 n7         1 H45      -0.583200
     18 C17          3.8560     0.6110    -8.6800 c3         1 H45       0.201100
     19 C15          4.2430     1.4550    -9.8680 ca         1 H45      -0.062300
     20 C14          3.5420     1.3410   -11.0540 ca         1 H45      -0.102000
     21 C13          3.8920     2.1130   -12.1460 ca         1 H45      -0.064000
     22 C12          4.9470     3.0010   -12.0550 ca         1 H45      -0.167000
     23 C11          5.6540     3.1170   -10.8650 ca         1 H45       0.011600
     24 C16          5.2950     2.3440    -9.7680 ca         1 H45      -0.138000
     25 N07          6.7220     4.0150   -10.7700 nu         1 H45      -0.334600
     26 C06          6.6680     5.2260   -11.4330 ce         1 H45       0.543800
     27 N06          5.5780     5.5790   -12.0600 n2         1 H45      -0.775100
     28 C05          7.8380     6.1170   -11.4330 cc         1 H45      -0.057000
     29 S01          9.3720     5.7860   -10.6390 ss         1 H45      -0.245800
     30 C02         10.0190     7.2740   -11.1660 cc         1 H45      -0.012100
     31 C03          9.1240     7.9550   -11.8870 cd         1 H45      -0.135000
     32 C04          7.9090     7.3280   -12.0520 cd         1 H45      -0.064000
     33 H1          -0.5000    -0.0000     0.8670 hn         1 H45       0.331400
     34 H2           4.5250     0.0140     3.8170 h4         1 H45       0.152000
     35 H3           2.1120     0.0050     4.5790 ha         1 H45       0.124000
     36 H4           0.4050    -0.0050     2.6800 ha         1 H45       0.129000
     37 H5           2.9890     0.1400    -1.2000 hn         1 H45       0.287800
     38 H6           2.5200     1.3100    -3.4350 ha         1 H45       0.106000
     39 H7          -0.6030    -0.4840    -5.7280 ha         1 H45       0.107000
     40 H8          -1.2810    -1.8210    -3.7720 ha         1 H45       0.102000
     41 H9          -0.0610    -1.6000    -1.6440 ha         1 H45       0.127000
     42 H10          0.5450     1.5030    -6.5180 hc         1 H45       0.023700
     43 H11          1.8390     2.2460    -5.5670 hc         1 H45       0.023700
     44 H12          2.0270    -0.4080    -7.0400 h1         1 H45       0.008700
     45 H13          3.3200     0.3360    -6.0890 h1         1 H45       0.008700
     46 H14          3.2350     2.2000    -7.5720 hn         1 H45       0.255800
     47 H16          3.4400    -0.3280    -9.0250 h1         1 H45       0.010200
     48 H17          4.7330     0.4160    -8.0750 h1         1 H45       0.010200
     49 H18          2.7140     0.6460   -11.1270 ha         1 H45       0.112000
     50 H19          3.3400     2.0210   -13.0730 ha         1 H45       0.106000
     51 H20          5.2240     3.6040   -12.9110 ha         1 H45       0.136000
     52 H21          5.8440     2.4330    -8.8390 ha         1 H45       0.110000
     53 H22          7.5030     3.8010   -10.1810 hn         1 H45       0.295800
     54 H23          4.7820     4.9720   -12.0610 hn         1 H45       0.359400
     55 H24         11.0210     7.6210   -10.9430 h4         1 H45       0.150000
     56 H25          9.3410     8.9260   -12.3160 ha         1 H45       0.122000
     57 H26          7.0890     7.7600   -12.6130 ha         1 H45       0.144000
@<TRIPOS>BOND
     1     1     2 2   
     2     1    33 1   
     3     2     3 1   
     4     2     8 1   
     5     3     4 1   
     6     3     7 2   
     7     4     5 1   
     8     5     6 2   
     9     5    34 1   
    10     6     7 1   
    11     6    35 1   
    12     7    36 1   
    13     8     9 1   
    14     8    37 1   
    15     9    10 ar  
    16     9    14 ar  
    17    10    11 ar  
    18    10    38 1   
    19    11    12 ar  
    20    11    15 1   
    21    12    13 ar  
    22    12    39 1   
    23    13    14 ar  
    24    13    40 1   
    25    14    41 1   
    26    15    16 1   
    27    15    42 1   
    28    15    43 1   
    29    16    17 1   
    30    16    44 1   
    31    16    45 1   
    32    17    18 1   
    33    17    46 1   
    34    18    19 1   
    35    18    47 1   
    36    18    48 1   
    37    19    20 ar  
    38    19    24 ar  
    39    20    21 ar  
    40    20    49 1   
    41    21    22 ar  
    42    21    50 1   
    43    22    23 ar  
    44    22    51 1   
    45    23    24 ar  
    46    23    25 1   
    47    24    52 1   
    48    25    26 1   
    49    25    53 1   
    50    26    27 2   
    51    26    28 1   
    52    27    54 1   
    53    28    29 1   
    54    28    32 2   
    55    29    30 1   
    56    30    31 2   
    57    30    55 1   
    58    31    32 1   
    59    31    56 1   
    60    32    57 1   
@<TRIPOS>SUBSTRUCTURE
     1 H45         1 TEMP              0 ****  ****    0 ROOT
