@<TRIPOS>MOLECULE
H49
   44    46     1     0     0
SMALL
bcc


@<TRIPOS>ATOM
      1 C22          0.0000     0.0000     0.0000 c3         1 H49      -0.024400
      2 C21          1.5420     0.0000     0.0000 c3         1 H49      -0.025400
      3 C20          1.9440     0.0000     1.4910 c3         1 H49       0.139800
      4 N19          0.7720    -0.5810     2.1940 n7         1 H49      -0.565200
      5 C18         -0.4010    -0.0000     1.4910 c3         1 H49       0.114500
      6 C17         -1.6400    -0.8710     1.7100 c3         1 H49       0.149800
      7 N16         -1.9320    -0.9530     3.1480 n7         1 H49      -0.576200
      8 C15         -3.1190    -1.7830     3.3960 c3         1 H49       0.201100
      9 C12         -3.3870    -1.8440     4.8780 ca         1 H49      -0.063300
     10 C13         -4.2060    -0.9030     5.4710 ca         1 H49      -0.137000
     11 C11         -2.8170    -2.8460     5.6420 ca         1 H49      -0.099000
     12 C10         -3.0610    -2.9060     7.0030 ca         1 H49      -0.066000
     13 C09         -3.8750    -1.9640     7.6020 ca         1 H49      -0.162000
     14 C08         -4.4530    -0.9610     6.8360 ca         1 H49       0.009600
     15 N07         -5.2820    -0.0090     7.4390 nu         1 H49      -0.334600
     16 C06         -6.1320    -0.3820     8.4610 ce         1 H49       0.543800
     17 N14         -6.2410    -1.6420     8.7920 n2         1 H49      -0.776100
     18 C05         -6.9120     0.6370     9.1780 cc         1 H49      -0.058000
     19 S01         -6.8760     2.3640     8.8520 ss         1 H49      -0.245800
     20 C02         -8.0120     2.6690    10.0890 cc         1 H49      -0.012100
     21 C03         -8.3780     1.5340    10.6910 cd         1 H49      -0.135000
     22 C04         -7.7850     0.3940    10.1970 cd         1 H49      -0.064000
     23 H221        -0.3750     0.8910    -0.4890 hc         1 H49       0.018700
     24 H222        -0.3750    -0.8910    -0.4890 hc         1 H49       0.018700
     25 H211         1.9170    -0.8910    -0.4890 hc         1 H49       0.017200
     26 H212         1.9170     0.8910    -0.4890 hc         1 H49       0.017200
     27 H18         -0.5790     1.0130     1.8320 h1         1 H49       0.006700
     28 H201         2.8200    -0.6190     1.6450 h1         1 H49       0.008700
     29 H202         2.1230     1.0120     1.8330 h1         1 H49       0.008700
     30 H19          0.7720    -0.2800     3.1480 hn         1 H49       0.259800
     31 H171        -1.4560    -1.8650     1.3220 h1         1 H49       0.013200
     32 H172        -2.4860    -0.4330     1.1940 h1         1 H49       0.013200
     33 H16         -2.0870    -0.0330     3.5100 hn         1 H49       0.248800
     34 H151        -2.9450    -2.7830     3.0190 h1         1 H49       0.011200
     35 H152        -3.9740    -1.3500     2.8920 h1         1 H49       0.011200
     36 H13         -4.6560    -0.1210     4.8710 ha         1 H49       0.109000
     37 H11         -2.1790    -3.5860     5.1740 ha         1 H49       0.114000
     38 H10         -2.6110    -3.6910     7.5990 ha         1 H49       0.106000
     39 H09         -4.0660    -2.0120     8.6670 ha         1 H49       0.134000
     40 H141        -5.7100    -2.3360     8.3040 hn         1 H49       0.357400
     41 H142        -5.2920     0.9320     7.0980 hn         1 H49       0.295800
     42 H04         -7.9860    -0.5970    10.5850 ha         1 H49       0.144000
     43 H02         -8.3840     3.6520    10.3520 h4         1 H49       0.150000
     44 H03         -9.0950     1.5120    11.5030 ha         1 H49       0.122000
@<TRIPOS>BOND
     1     1     2 1   
     2     1     5 1   
     3     1    23 1   
     4     1    24 1   
     5     2     3 1   
     6     2    25 1   
     7     2    26 1   
     8     3     4 1   
     9     3    28 1   
    10     3    29 1   
    11     4     5 1   
    12     4    30 1   
    13     5     6 1   
    14     5    27 1   
    15     6     7 1   
    16     6    31 1   
    17     6    32 1   
    18     7     8 1   
    19     7    33 1   
    20     8     9 1   
    21     8    34 1   
    22     8    35 1   
    23     9    10 ar  
    24     9    11 ar  
    25    10    14 ar  
    26    10    36 1   
    27    11    12 ar  
    28    11    37 1   
    29    12    13 ar  
    30    12    38 1   
    31    13    14 ar  
    32    13    39 1   
    33    14    15 1   
    34    15    16 1   
    35    15    41 1   
    36    16    17 2   
    37    16    18 1   
    38    17    40 1   
    39    18    19 1   
    40    18    22 2   
    41    19    20 1   
    42    20    21 2   
    43    20    43 1   
    44    21    22 1   
    45    21    44 1   
    46    22    42 1   
@<TRIPOS>SUBSTRUCTURE
     1 H49         1 TEMP              0 ****  ****    0 ROOT
