@<TRIPOS>MOLECULE
molecule
   44    46     1     0     0
SMALL
bcc


@<TRIPOS>ATOM
      1 C22          0.0000     0.0000     0.0000 c3         1 H49      -0.080400
      2 C21          1.5420     0.0000     0.0000 c3         1 H49      -0.083400
      3 C20          1.9440     0.0000     1.4910 c3         1 H49       0.134800
      4 N19          0.7720    -0.5810     2.1940 n7         1 H49      -0.773200
      5 C18         -0.4010    -0.0000     1.4910 c3         1 H49       0.147500
      6 C17         -1.6400    -0.8710     1.7100 c3         1 H49       0.168800
      7 N16         -1.9320    -0.9530     3.1480 n7         1 H49      -0.809200
      8 C15         -3.1190    -1.7830     3.3960 c3         1 H49       0.206100
      9 C12         -3.3870    -1.8440     4.8780 ca         1 H49      -0.070300
     10 C13         -4.2060    -0.9030     5.4710 ca         1 H49      -0.167000
     11 C11         -2.8170    -2.8460     5.6420 ca         1 H49      -0.123000
     12 C10         -3.0610    -2.9060     7.0030 ca         1 H49      -0.116000
     13 C09         -3.8750    -1.9640     7.6020 ca         1 H49      -0.116000
     14 C08         -4.4530    -0.9610     6.8360 ca         1 H49       0.163600
     15 N07         -5.2820    -0.0090     7.4390 nu         1 H49      -0.737600
     16 C06         -6.1320    -0.3820     8.4610 ce         1 H49       0.723800
     17 N14         -6.2410    -1.6420     8.7920 n2         1 H49      -0.869100
     18 C05         -6.9120     0.6370     9.1780 cc         1 H49      -0.154000
     19 S01         -6.8760     2.3640     8.8520 ss         1 H49      -0.095800
     20 C02         -8.0120     2.6690    10.0890 cc         1 H49      -0.093100
     21 C03         -8.3780     1.5340    10.6910 cd         1 H49      -0.160000
     22 C04         -7.7850     0.3940    10.1970 cd         1 H49      -0.122000
     23 H221        -0.3750    -0.8910    -0.4890 hc         1 H49       0.047200
     24 H222        -0.3750     0.8910    -0.4890 hc         1 H49       0.047200
     25 H211         1.9170     0.8910    -0.4890 hc         1 H49       0.047200
     26 H212         1.9170    -0.8910    -0.4890 hc         1 H49       0.047200
     27 H18         -0.5790     1.0130     1.8320 h1         1 H49       0.023700
     28 H201         2.8200    -0.6190     1.6450 h1         1 H49       0.037700
     29 H202         2.1230     1.0120     1.8330 h1         1 H49       0.037700
     30 H19          0.7720    -0.2800     3.1480 hn         1 H49       0.356800
     31 H171        -1.4560    -1.8650     1.3220 h1         1 H49       0.038200
     32 H172        -2.4860    -0.4330     1.1940 h1         1 H49       0.038200
     33 H16         -2.0870    -0.0330     3.5100 hn         1 H49       0.346800
     34 H151        -3.9740    -1.3500     2.8920 h1         1 H49       0.038200
     35 H152        -2.9450    -2.7830     3.0190 h1         1 H49       0.038200
     36 H13         -4.6560    -0.1210     4.8710 ha         1 H49       0.123000
     37 H11         -2.1790    -3.5860     5.1740 ha         1 H49       0.136000
     38 H10         -2.6110    -3.6910     7.5990 ha         1 H49       0.132000
     39 H09         -4.0660    -2.0120     8.6670 ha         1 H49       0.156000
     40 H141        -6.8570    -1.9130     9.5330 hn         1 H49       0.406400
     41 H142        -5.2920     0.9320     7.0980 hn         1 H49       0.447800
     42 H04         -7.9860    -0.5970    10.5850 ha         1 H49       0.155000
     43 H02         -8.3840     3.6520    10.3520 h4         1 H49       0.174000
     44 H03         -9.0950     1.5120    11.5030 ha         1 H49       0.153000
@<TRIPOS>BOND
     1     1     2 1
     2     1     5 1
     3     2     3 1
     4     3     4 1
     5     4     5 1
     6     5     6 1
     7     6     7 1
     8     7     8 1
     9     8     9 1
    10     9    10 ar
    11     9    11 ar
    12    10    14 ar
    13    11    12 ar
    14    12    13 ar
    15    13    14 ar
    16    14    15 1
    17    15    16 1
    18    16    17 2
    19    16    18 1
    20    18    19 1
    21    18    22 2
    22    19    20 1
    23    20    21 2
    24    21    22 1
    25     1    23 1
    26     1    24 1
    27     2    25 1
    28     2    26 1
    29     5    27 1
    30     3    28 1
    31     3    29 1
    32     4    30 1
    33     6    31 1
    34     6    32 1
    35     7    33 1
    36     8    34 1
    37     8    35 1
    38    10    36 1
    39    11    37 1
    40    12    38 1
    41    13    39 1
    42    17    40 1
    43    15    41 1
    44    22    42 1
    45    20    43 1
    46    21    44 1
@<TRIPOS>SUBSTRUCTURE
     1 H49         1 TEMP              0 ****  ****    0 ROOT
