@<TRIPOS>MOLECULE
H4B
   32    33     1     0     0
SMALL
bcc


@<TRIPOS>ATOM
      1 N1          0.0990   -0.2160   -0.0670 nc        1 H4B     -0.705300
      2 C2          1.4430   -0.2190    0.0020 cd        1 H4B      0.678800
      3 N2          2.1890   -0.0840   -1.1940 nh        1 H4B     -0.888800
      4 N3          2.1550   -0.2930    1.2090 n         1 H4B     -0.496400
      5 C4          1.4820   -0.2320    2.4510 c         1 H4B      0.726700
      6 O4          2.1820   -0.2870    3.4790 o         1 H4B     -0.634500
      7 C4A         0.0230   -0.1390    2.3900 cd        1 H4B     -0.196200
      8 C8A        -0.6150   -0.2130    1.1370 cc        1 H4B      0.384600
      9 N5         -0.6610    0.0990    3.6080 nh        1 H4B     -0.668000
     10 N8         -2.0040   -0.3210    1.0580 nh        1 H4B     -0.731000
     11 C6         -2.0590    0.4650    3.4520 c3        1 H4B      0.161500
     12 C7         -2.7650   -0.2650    2.2770 c3        1 H4B      0.173800
     13 C9         -2.2240    2.0000    3.2800 c3        1 H4B      0.108100
     14 O9         -3.6290    2.2070    3.2180 oh        1 H4B     -0.610800
     15 C10        -1.5800    2.7770    4.4490 c3        1 H4B      0.131100
     16 C11        -2.3290    4.0550    4.7870 c3        1 H4B     -0.101100
     17 O10        -0.2670    3.1760    4.0880 oh        1 H4B     -0.606800
     18 HN21        3.0300   -0.6180   -1.2280 hn        1 H4B      0.416800
     19 HN22        1.6430   -0.1420   -2.0270 hn        1 H4B      0.416800
     20 HN3         3.1510   -0.2690    1.2200 hn        1 H4B      0.335500
     21 HN5        -0.5480   -0.6790    4.2320 hn        1 H4B      0.387800
     22 HN8        -2.4430    0.0300    0.2360 hn        1 H4B      0.433800
     23 H6         -2.6120    0.1810    4.3950 h1        1 H4B      0.076700
     24 H71        -2.9620   -1.3290    2.6000 h1        1 H4B      0.065200
     25 H72        -3.7570    0.2320    2.0830 h1        1 H4B      0.065200
     26 H9         -1.7470    2.3350    2.3170 h1        1 H4B      0.054700
     27 HO9        -3.7640    3.1370    3.0020 ho        1 H4B      0.411000
     28 H10        -1.5440    2.1170    5.3610 h1        1 H4B      0.043700
     29 H111       -1.7740    4.6110    5.5800 hc        1 H4B      0.046033
     30 H112       -2.4050    4.7140    3.8890 hc        1 H4B      0.046033
     31 H113       -3.3520    3.8070    5.1570 hc        1 H4B      0.046033
     32 HO0         0.2760    2.3790    4.0430 ho        1 H4B      0.426000
@<TRIPOS>BOND
     1    1    2 2   
     2    1    8 1   
     3    2    3 1   
     4    2    4 1   
     5    3   18 1   
     6    3   19 1   
     7    4    5 1   
     8    4   20 1   
     9    5    6 2   
    10    5    7 1   
    11    7    8 2   
    12    7    9 1   
    13    8   10 1   
    14    9   11 1   
    15    9   21 1   
    16   10   12 1   
    17   10   22 1   
    18   11   12 1   
    19   11   13 1   
    20   11   23 1   
    21   12   24 1   
    22   12   25 1   
    23   13   14 1   
    24   13   15 1   
    25   13   26 1   
    26   14   27 1   
    27   15   16 1   
    28   15   17 1   
    29   15   28 1   
    30   16   29 1   
    31   16   30 1   
    32   16   31 1   
    33   17   32 1   
@<TRIPOS>SUBSTRUCTURE
     1 H4B         1 TEMP              0 ****  ****    0 ROOT
