@<TRIPOS>MOLECULE
H4C
   39    42     1     0     0
SMALL
bcc


@<TRIPOS>ATOM
      1 C            0.0000     0.0000     0.0000 c3         1 H4C       0.007900
      2 N            3.2190     0.0000     5.0760 na         1 H4C       0.601000
      3 S            2.3660     0.9580     2.5990 ss         1 H4C      -0.167800
      4 Cl           5.8560    -2.0640     2.7790 cl         1 H4C      -0.044400
      5 C1           1.5300     0.0000     0.0000 c3         1 H4C       0.050900
      6 N1           4.0520     0.9370     6.8230 na         1 H4C       0.543400
      7 C2           2.0320    -0.2740     1.3950 cc         1 H4C       0.122600
      8 N2           3.4400    -0.2700     7.1980 n2         1 H4C      -0.547800
      9 C3           2.2840    -1.4770     1.8820 cd         1 H4C      -0.131000
     10 N3           2.9490    -3.0290     5.1420 n2         1 H4C      -0.481900
     11 C4           2.7540    -1.5190     3.2090 cd         1 H4C      -0.055900
     12 C5           2.8320    -0.2610     3.7770 cc         1 H4C      -0.266300
     13 C6           3.8860     1.0550     5.4940 cc         1 H4C      -0.381900
     14 C7           4.3760     2.1930     4.6360 c3         1 H4C       0.081200
     15 C8           2.9530    -0.8060     6.1120 cc         1 H4C       0.234800
     16 C9           2.2180    -2.1210     6.0240 c3         1 H4C       0.149500
     17 C10          3.1400    -2.7730     3.8880 cf         1 H4C       0.506500
     18 C11          3.7980    -3.8180     3.0690 ca         1 H4C      -0.171900
     19 C12          3.1610    -5.0370     2.8460 ca         1 H4C      -0.048000
     20 C13          3.7790    -6.0070     2.0820 ca         1 H4C      -0.089000
     21 C14          5.0290    -5.7710     1.5380 ca         1 H4C      -0.056000
     22 C15          5.6680    -4.5630     1.7560 ca         1 H4C      -0.090000
     23 C16          5.0570    -3.5820     2.5130 ca         1 H4C      -0.008600
     24 H           -0.3610    -0.9800     0.2880 hc         1 H4C       0.015033
     25 HA          -0.3610     0.7390     0.7050 hc         1 H4C       0.015033
     26 HB          -0.3610     0.2410    -0.9930 hc         1 H4C       0.015033
     27 H1           1.8920     0.9660    -0.3300 hc         1 H4C       0.038700
     28 H1A          1.8910    -0.7690    -0.6720 hc         1 H4C       0.038700
     29 HN1          4.3570     1.6600     7.4440 hn         1 H4C       0.198700
     30 H3           2.1410    -2.3760     1.2950 ha         1 H4C       0.158000
     31 H7           3.5280     2.7510     4.2580 hc         1 H4C       0.052367
     32 H7A          5.0040     2.8470     5.2280 hc         1 H4C       0.052367
     33 H7B          4.9470     1.7980     3.8040 hc         1 H4C       0.052367
     34 H9           1.2450    -1.9350     5.5850 h1         1 H4C       0.063200
     35 H9A          2.1920    -2.5600     7.0140 h1         1 H4C       0.063200
     36 H12          2.1820    -5.2240     3.2710 ha         1 H4C       0.116000
     37 H13          3.2850    -6.9550     1.9090 ha         1 H4C       0.120000
     38 H14          5.5110    -6.5360     0.9420 ha         1 H4C       0.119000
     39 H15          6.6470    -4.3840     1.3270 ha         1 H4C       0.127000
@<TRIPOS>BOND
     1     1     5 1   
     2     1    24 1   
     3     1    25 1   
     4     1    26 1   
     5     2    12 1   
     6     2    13 2   
     7     2    15 1   
     8     3     7 1   
     9     3    12 1   
    10     4    23 1   
    11     5     7 1   
    12     5    27 1   
    13     5    28 1   
    14     6     8 1   
    15     6    13 1   
    16     6    29 1   
    17     7     9 2   
    18     8    15 2   
    19     9    11 1   
    20     9    30 1   
    21    10    16 1   
    22    10    17 2   
    23    11    12 2   
    24    11    17 1   
    25    13    14 1   
    26    14    31 1   
    27    14    32 1   
    28    14    33 1   
    29    15    16 1   
    30    16    34 1   
    31    16    35 1   
    32    17    18 1   
    33    18    19 ar  
    34    18    23 ar  
    35    19    20 ar  
    36    19    36 1   
    37    20    21 ar  
    38    20    37 1   
    39    21    22 ar  
    40    21    38 1   
    41    22    23 ar  
    42    22    39 1   
@<TRIPOS>SUBSTRUCTURE
     1 H4C         1 TEMP              0 ****  ****    0 ROOT
