@<TRIPOS>MOLECULE
molecule
   39    42     1     0     0
SMALL
bcc


@<TRIPOS>ATOM
      1 C            0.0000     0.0000     0.0000 c3         1 H4C      -0.091100
      2 N            3.2190     0.0000     5.0760 na         1 H4C      -0.019000
      3 S            2.3660     0.9580     2.5990 ss         1 H4C      -0.059800
      4 Cl           5.8560    -2.0640     2.7790 cl         1 H4C      -0.115400
      5 C1           1.5300     0.0000     0.0000 c3         1 H4C      -0.021100
      6 N1           4.0520     0.9370     6.8230 na         1 H4C       0.017400
      7 C2           2.0320    -0.2740     1.3950 cc         1 H4C       0.043600
      8 N2           3.4400    -0.2700     7.1980 n2         1 H4C      -0.433800
      9 C3           2.2840    -1.4770     1.8820 cd         1 H4C      -0.142000
     10 N3           2.9490    -3.0290     5.1420 n2         1 H4C      -0.564900
     11 C4           2.7540    -1.5190     3.2090 cd         1 H4C      -0.123900
     12 C5           2.8320    -0.2610     3.7770 cc         1 H4C      -0.082300
     13 C6           3.8860     1.0550     5.4940 cc         1 H4C       0.039100
     14 C7           4.3760     2.1930     4.6360 c3         1 H4C      -0.049800
     15 C8           2.9530    -0.8060     6.1120 cc         1 H4C       0.433800
     16 C9           2.2180    -2.1210     6.0240 c3         1 H4C       0.096500
     17 C10          3.1400    -2.7730     3.8880 cf         1 H4C       0.557500
     18 C11          3.7980    -3.8180     3.0690 ca         1 H4C      -0.154900
     19 C12          3.1610    -5.0370     2.8460 ca         1 H4C      -0.079000
     20 C13          3.7790    -6.0070     2.0820 ca         1 H4C      -0.121000
     21 C14          5.0290    -5.7710     1.5380 ca         1 H4C      -0.089000
     22 C15          5.6680    -4.5630     1.7560 ca         1 H4C      -0.115000
     23 C16          5.0570    -3.5820     2.5130 ca         1 H4C       0.052400
     24 H           -0.3610    -0.9800     0.2880 hc         1 H4C       0.049700
     25 HA          -0.3610     0.7390     0.7050 hc         1 H4C       0.049700
     26 HB          -0.3610     0.2410    -0.9930 hc         1 H4C       0.049700
     27 H1           1.8920     0.9660    -0.3300 hc         1 H4C       0.072700
     28 H1A          1.8910    -0.7690    -0.6720 hc         1 H4C       0.072700
     29 HN1          4.3570     1.6600     7.4440 hn         1 H4C       0.391700
     30 H3           2.1410    -2.3760     1.2950 ha         1 H4C       0.187000
     31 H7           3.5280     2.7510     4.2580 hc         1 H4C       0.101367
     32 H7A          5.0040     2.8470     5.2280 hc         1 H4C       0.101367
     33 H7B          4.9470     1.7980     3.8040 hc         1 H4C       0.101367
     34 H9           1.2450    -1.9350     5.5850 h1         1 H4C       0.112700
     35 H9A          2.1920    -2.5600     7.0140 h1         1 H4C       0.112700
     36 H12          2.1820    -5.2240     3.2710 ha         1 H4C       0.150000
     37 H13          3.2850    -6.9550     1.9090 ha         1 H4C       0.154000
     38 H14          5.5110    -6.5360     0.9420 ha         1 H4C       0.155000
     39 H15          6.6470    -4.3840     1.3270 ha         1 H4C       0.160000
@<TRIPOS>BOND
     1     1     5 1
     2     2    12 1
     3     2    13 2
     4     2    15 1
     5     3     7 1
     6     3    12 1
     7     4    23 1
     8     5     7 1
     9     6     8 1
    10     6    13 1
    11     7     9 2
    12     8    15 2
    13     9    11 1
    14    10    16 1
    15    10    17 2
    16    11    12 2
    17    11    17 1
    18    13    14 1
    19    15    16 1
    20    17    18 1
    21    18    19 ar
    22    18    23 ar
    23    19    20 ar
    24    20    21 ar
    25    21    22 ar
    26    22    23 ar
    27     1    24 1
    28     1    25 1
    29     1    26 1
    30     5    27 1
    31     5    28 1
    32     6    29 1
    33     9    30 1
    34    14    31 1
    35    14    32 1
    36    14    33 1
    37    16    34 1
    38    16    35 1
    39    19    36 1
    40    20    37 1
    41    21    38 1
    42    22    39 1
@<TRIPOS>SUBSTRUCTURE
     1 H4C         1 TEMP              0 ****  ****    0 ROOT
