@<TRIPOS>MOLECULE
molecule
   32    34     1     0     0
SMALL
bcc


@<TRIPOS>ATOM
      1 N4          -1.2690    -0.0100    -2.2330 n1         1 H4K      -0.334800
      2 C6          -0.7150     0.0010    -1.2410 cg         1 H4K       0.144800
      3 C4           0.0000     0.0000     0.0000 ca         1 H4K       0.347000
      4 N2           1.3330     0.0000     0.0000 nb         1 H4K      -0.581000
      5 C3           1.9900     0.0000     1.1410 ca         1 H4K       0.272900
      6 C5          -0.6970     0.0060     1.2090 ca         1 H4K       0.376900
      7 N3          -0.0360     0.0070     2.3510 nb         1 H4K      -0.643000
      8 C2           1.2920     0.0010     2.3490 ca         1 H4K       0.402900
      9 N1           1.9870    -0.0000     3.5530 ns         1 H4K      -0.522400
     10 C1           1.3180     0.1030     4.7180 c          1 H4K       0.762100
     11 O            0.1030     0.1030     4.7230 o          1 H4K      -0.501100
     12 N5           1.9970     0.2070     5.8790 ns         1 H4K      -0.566400
     13 C7           1.3080     0.2060     7.0920 ca         1 H4K       0.516200
     14 N6          -0.0230     0.2010     7.0840 nb         1 H4K      -0.680000
     15 C15         -0.7390     0.2000     8.1830 ca         1 H4K       0.479200
     16 C14         -0.1060     0.2070     9.4360 ca         1 H4K      -0.210300
     17 C9           1.3130     0.2110     9.4850 ca         1 H4K       0.037000
     18 C8           2.0220     0.2060     8.2720 ca         1 H4K      -0.293300
     19 C13         -0.8340     0.2060    10.6360 ca         1 H4K      -0.120000
     20 C12         -0.1700     0.2110    11.8260 ca         1 H4K      -0.152000
     21 C11          1.2230     0.2170    11.8720 ca         1 H4K      -0.081000
     22 C10          1.9640     0.2170    10.7290 ca         1 H4K      -0.114000
     23 H2           2.9910    -0.0550     1.5510 h4         1 H4K       0.043100
     24 H3          -1.7790    -0.0510     1.2160 h4         1 H4K       0.049100
     25 H1           2.8650     0.4740     3.4690 hn         1 H4K       0.306500
     26 H4           2.9570     0.4230     6.0600 hn         1 H4K       0.327500
     27 H10         -1.7520     0.5820     8.1710 h4         1 H4K       0.032100
     28 H5           3.0050     0.2220     7.8170 ha         1 H4K       0.138000
     29 H9          -1.8400     0.5510    10.4290 ha         1 H4K       0.137000
     30 H8          -1.0400     0.1820    12.4710 ha         1 H4K       0.149000
     31 H7           1.5350    -0.0470    12.8750 ha         1 H4K       0.138000
     32 H6           3.0450     0.1620    10.7530 ha         1 H4K       0.140000
@<TRIPOS>BOND
     1    22    21 ar
     2    22    17 ar
     3    21    20 ar
     4    11    10 2
     5    18    17 ar
     6    18    13 ar
     7    17    16 ar
     8    20    19 ar
     9    10     9 1
    10    10    12 1
    11     9     8 1
    12    13    12 1
    13    13    14 ar
    14    16    19 ar
    15    16    15 ar
    16    14    15 ar
    17     8     5 ar
    18     8     7 ar
    19     5     4 ar
    20     7     6 ar
    21     4     3 ar
    22     6     3 ar
    23     3     2 1
    24     2     1 3
    25     5    23 1
    26     6    24 1
    27     9    25 1
    28    12    26 1
    29    15    27 1
    30    18    28 1
    31    19    29 1
    32    20    30 1
    33    21    31 1
    34    22    32 1
@<TRIPOS>SUBSTRUCTURE
     1 H4K         1 TEMP              0 ****  ****    0 ROOT
