@<TRIPOS>MOLECULE
molecule
   36    35     1     0     0
SMALL
bcc


@<TRIPOS>ATOM
      1 OA4          0.0000     0.0000     0.0000 oh         1 H4P      -0.616800
      2 CA4          1.4300     0.0000     0.0000 c3         1 H4P       0.124100
      3 CA5          1.9370     0.0000     1.4430 c3         1 H4P       0.137400
      4 OP4          1.4620    -1.1650     2.1180 os         1 H4P      -0.554200
      5 PA           2.0320    -1.0990     3.6210 p5         1 H4P       1.180900
      6 OP1          1.5390     0.1300     4.2830 o          1 H4P      -0.925833
      7 OP2          1.5300    -2.3880     4.4440 o          1 H4P      -0.925833
      8 OP3          3.6410    -1.0790     3.5850 o          1 H4P      -0.925833
      9 CA3          1.9400     1.2470    -0.7230 c3         1 H4P       0.137100
     10 OA3          3.3690     1.2460    -0.7220 oh         1 H4P      -0.601800
     11 CA2          1.4300     1.2450    -2.1640 c3         1 H4P       0.132100
     12 OA2          1.9060     0.0780    -2.8360 oh         1 H4P      -0.608800
     13 CA1          1.9420     2.4930    -2.8870 c3         1 H4P       0.135100
     14 OA1          1.4660     3.6600    -2.2160 oh         1 H4P      -0.573800
     15 C3           1.4330     2.4910    -4.3300 c3         1 H4P       0.119800
     16 N            1.9230     3.6880    -5.0240 n7         1 H4P      -0.727200
     17 C4           1.4010     3.6260    -6.3950 c3         1 H4P      -0.017400
     18 P           -0.2170     4.4600    -6.4690 p5         1 H4P       1.076700
     19 O1P         -0.0610     5.8760    -6.0650 o          1 H4P      -0.923833
     20 O2P         -0.7890     4.3920    -7.9720 o          1 H4P      -0.923833
     21 O3P         -1.2440     3.7280    -5.4690 o          1 H4P      -0.923833
     22 HA4         -0.3140    -0.8880    -0.0360 ho         1 H4P       0.396000
     23 H1           1.7910    -0.8850    -0.5090 h1         1 H4P       0.036700
     24 HA51         3.0210     0.0000     1.4440 h1         1 H4P       0.046200
     25 HA52         1.5760     0.8850     1.9520 h1         1 H4P       0.046200
     26 HA3          1.5790     2.1320    -0.2140 h1         1 H4P       0.059700
     27 H2           3.6830     1.9680    -0.2020 ho         1 H4P       0.387000
     28 HA2          0.3470     1.2450    -2.1640 h1         1 H4P       0.075700
     29 H3           1.1750    -0.4030    -3.1870 ho         1 H4P       0.386000
     30 HA1          3.0250     2.4920    -2.8870 h1         1 H4P       0.013700
     31 H4           2.1870     4.2450    -2.0520 ho         1 H4P       0.379000
     32 H31          0.3490     2.4920    -4.3300 h1         1 H4P       0.060200
     33 H32          1.7930     1.6060    -4.8390 h1         1 H4P       0.060200
     34 HN           2.9240     3.6740    -5.0470 hn         1 H4P       0.260800
     35 H41          2.0930     4.1200    -7.0670 h1         1 H4P      -0.002300
     36 H42          1.2870     2.5900    -6.6910 h1         1 H4P      -0.002300
@<TRIPOS>BOND
     1     1     2 1
     2     1    22 1
     3     2     3 1
     4     2     9 1
     5     2    23 1
     6     3     4 1
     7     3    24 1
     8     3    25 1
     9     4     5 1
    10     5     6 1
    11     5     7 1
    12     5     8 1
    13     9    10 1
    14     9    11 1
    15     9    26 1
    16    10    27 1
    17    11    12 1
    18    11    13 1
    19    11    28 1
    20    12    29 1
    21    13    14 1
    22    13    15 1
    23    13    30 1
    24    14    31 1
    25    15    16 1
    26    15    32 1
    27    15    33 1
    28    16    17 1
    29    16    34 1
    30    17    18 1
    31    17    35 1
    32    17    36 1
    33    18    19 1
    34    18    20 1
    35    18    21 1
@<TRIPOS>SUBSTRUCTURE
     1 H4P         1 TEMP              0 ****  ****    0 ROOT
