@<TRIPOS>MOLECULE
H4V
   39    40     1     0     0
SMALL
bcc


@<TRIPOS>ATOM
      1 I01          0.0000     0.0000     0.0000 i          1 H4V      -0.305800
      2 C02          2.0950     0.0000     0.0000 ca         1 H4V       0.679100
      3 N03          2.7640     0.0000     1.1430 nb         1 H4V      -0.582000
      4 C04          4.0880    -0.0000     1.1550 ca         1 H4V       0.619900
      5 N05          4.7550     0.0010     2.3740 ns         1 H4V      -0.104400
      6 C06          4.0580     0.1070     3.5230 c          1 H4V       0.605100
      7 N07          4.7090     0.2100     4.6990 ns         1 H4V      -0.298300
      8 S08          3.8570     0.2150     6.1190 sy         1 H4V       1.063900
      9 C09          2.8680     1.6720     6.1290 ca         1 H4V      -0.085500
     10 C10          3.4740     2.9300     6.1020 ca         1 H4V      -0.065600
     11 C11          4.9460     3.0430     6.0660 c          1 H4V       0.717700
     12 O12          5.5330     4.2520     6.1660 os         1 H4V      -0.410900
     13 C13          6.9750     4.3000     6.0090 c3         1 H4V       0.273700
     14 O14          5.6300     2.0460     5.9450 o          1 H4V      -0.589000
     15 C15          2.6830     4.0800     6.1110 ca         1 H4V      -0.080000
     16 C16          1.3080     3.9670     6.1440 ca         1 H4V      -0.067000
     17 C17          0.7140     2.7180     6.1710 ca         1 H4V      -0.096000
     18 C18          1.4920     1.5740     6.1570 ca         1 H4V       0.019000
     19 O19          2.9550    -0.8820     6.0490 o          1 H4V      -0.564800
     20 O20          4.8120     0.3710     7.1590 o          1 H4V      -0.564800
     21 O21          2.8420     0.1100     3.4990 o          1 H4V      -0.608100
     22 N22          4.7940    -0.0000     0.0340 nb         1 H4V      -0.752000
     23 C23          4.1870    -0.0010    -1.1460 ca         1 H4V       0.684600
     24 O24          4.9120    -0.0010    -2.2910 os         1 H4V      -0.421100
     25 C25          6.3360    -0.0020    -2.1570 c3         1 H4V       0.257700
     26 C26          2.7950    -0.0070    -1.1930 ca         1 H4V      -0.381600
     27 H1           5.7490    -0.1180     2.4010 hn         1 H4V       0.176500
     28 H2           5.7100     0.2230     4.7170 hn         1 H4V       0.244500
     29 H3           7.4430     3.7070     6.7850 h1         1 H4V       0.002367
     30 H4           7.3120     5.3270     6.0870 h1         1 H4V       0.002367
     31 H5           7.2460     3.9040     5.0380 h1         1 H4V       0.002367
     32 H6           3.1470     5.0580     6.0900 ha         1 H4V       0.119000
     33 H7           0.6920     4.8590     6.1530 ha         1 H4V       0.106000
     34 H8          -0.3660     2.6360     6.1950 ha         1 H4V       0.110000
     35 H9           1.0200     0.5990     6.1780 ha         1 H4V       0.141000
     36 H10          6.7910    -0.0010    -3.1400 h1         1 H4V       0.001367
     37 H11          6.6470    -0.8870    -1.6150 h1         1 H4V       0.001367
     38 H12          6.6480     0.8820    -1.6140 h1         1 H4V       0.001367
     39 H13          2.2720    -0.0070    -2.1420 ha         1 H4V       0.146000
@<TRIPOS>BOND
     1     1     2 1   
     2     2     3 ar  
     3     2    26 ar  
     4     3     4 ar  
     5     4     5 1   
     6     4    22 ar  
     7     5     6 1   
     8     5    27 1   
     9     6     7 1   
    10     6    21 2   
    11     7     8 1   
    12     7    28 1   
    13     8     9 1   
    14     8    19 2   
    15     8    20 2   
    16     9    10 ar  
    17     9    18 ar  
    18    10    11 1   
    19    10    15 ar  
    20    11    12 1   
    21    11    14 2   
    22    12    13 1   
    23    13    29 1   
    24    13    30 1   
    25    13    31 1   
    26    15    16 ar  
    27    15    32 1   
    28    16    17 ar  
    29    16    33 1   
    30    17    18 ar  
    31    17    34 1   
    32    18    35 1   
    33    22    23 ar  
    34    23    24 1   
    35    23    26 ar  
    36    24    25 1   
    37    25    36 1   
    38    25    37 1   
    39    25    38 1   
    40    26    39 1   
@<TRIPOS>SUBSTRUCTURE
     1 H4V         1 TEMP              0 ****  ****    0 ROOT
