@<TRIPOS>MOLECULE
molecule
   39    40     1     0     0
SMALL
bcc


@<TRIPOS>ATOM
      1 I01          0.0000     0.0000     0.0000 i          1 H4V      -0.159800
      2 C02          2.0950     0.0000     0.0000 ca         1 H4V       0.614100
      3 N03          2.7640     0.0000     1.1430 nb         1 H4V      -0.721000
      4 C04          4.0880    -0.0000     1.1550 ca         1 H4V       0.852900
      5 N05          4.7550     0.0010     2.3740 ns         1 H4V      -0.537400
      6 C06          4.0580     0.1070     3.5230 c          1 H4V       0.785100
      7 N07          4.7090     0.2100     4.6990 ns         1 H4V      -0.644300
      8 S08          3.8570     0.2150     6.1190 sy         1 H4V       1.448900
      9 C09          2.8680     1.6720     6.1290 ca         1 H4V      -0.247500
     10 C10          3.4740     2.9300     6.1020 ca         1 H4V      -0.051600
     11 C11          4.9460     3.0430     6.0660 c          1 H4V       0.651700
     12 O12          5.5330     4.2520     6.1660 os         1 H4V      -0.415900
     13 C13          6.9750     4.3000     6.0090 c3         1 H4V       0.140700
     14 O14          5.6300     2.0460     5.9450 o          1 H4V      -0.565000
     15 C15          2.6830     4.0800     6.1110 ca         1 H4V      -0.096000
     16 C16          1.3080     3.9670     6.1440 ca         1 H4V      -0.094000
     17 C17          0.7140     2.7180     6.1710 ca         1 H4V      -0.117000
     18 C18          1.4920     1.5740     6.1570 ca         1 H4V      -0.015000
     19 O19          2.9550    -0.8820     6.0490 o          1 H4V      -0.610300
     20 O20          4.8120     0.3710     7.1590 o          1 H4V      -0.610300
     21 O21          2.8420     0.1100     3.4990 o          1 H4V      -0.557100
     22 N22          4.7940    -0.0000     0.0340 nb         1 H4V      -0.858000
     23 C23          4.1870    -0.0010    -1.1460 ca         1 H4V       0.720600
     24 O24          4.9120    -0.0010    -2.2910 os         1 H4V      -0.429100
     25 C25          6.3360    -0.0020    -2.1570 c3         1 H4V       0.134700
     26 C26          2.7950    -0.0070    -1.1930 ca         1 H4V      -0.401600
     27 H1           5.7490    -0.1180     2.4010 hn         1 H4V       0.342500
     28 H2           5.7100     0.2230     4.7170 hn         1 H4V       0.355500
     29 H3           7.4430     3.7070     6.7850 h1         1 H4V       0.053033
     30 H4           7.3120     5.3270     6.0870 h1         1 H4V       0.053033
     31 H5           7.2460     3.9040     5.0380 h1         1 H4V       0.053033
     32 H6           3.1470     5.0580     6.0900 ha         1 H4V       0.152000
     33 H7           0.6920     4.8590     6.1530 ha         1 H4V       0.139000
     34 H8          -0.3660     2.6360     6.1950 ha         1 H4V       0.143000
     35 H9           1.0200     0.5990     6.1780 ha         1 H4V       0.172000
     36 H10          6.7910    -0.0010    -3.1400 h1         1 H4V       0.050033
     37 H11          6.6470    -0.8870    -1.6150 h1         1 H4V       0.050033
     38 H12          6.6480     0.8820    -1.6140 h1         1 H4V       0.050033
     39 H13          2.2720    -0.0070    -2.1420 ha         1 H4V       0.168000
@<TRIPOS>BOND
     1    13    12 1
     2    14    11 2
     3    12    11 1
     4    11    10 1
     5     1     2 1
     6    15    10 ar
     7    15    16 ar
     8    10     9 ar
     9     3     2 ar
    10     3     4 ar
    11     2    26 ar
    12    16    17 ar
    13     5     4 1
    14     5     6 1
    15     4    22 ar
    16    26    23 ar
    17    19     8 2
    18     7     6 1
    19     7     8 1
    20     9     8 1
    21     9    18 ar
    22     6    21 2
    23    22    23 ar
    24     8    20 2
    25    23    24 1
    26    17    18 ar
    27    25    24 1
    28     5    27 1
    29     7    28 1
    30    13    29 1
    31    13    30 1
    32    13    31 1
    33    15    32 1
    34    16    33 1
    35    17    34 1
    36    18    35 1
    37    25    36 1
    38    25    37 1
    39    25    38 1
    40    26    39 1
@<TRIPOS>SUBSTRUCTURE
     1 H4V         1 TEMP              0 ****  ****    0 ROOT
