@<TRIPOS>MOLECULE
molecule
   57    59     1     0     0
SMALL
bcc


@<TRIPOS>ATOM
      1 F23          0.0000     0.0000     0.0000 f          1 H4W      -0.141900
      2 C23          1.3500     0.0000     0.0000 ca         1 H4W       0.135900
      3 C22          2.0430     0.0000     1.1990 ca         1 H4W      -0.166000
      4 C21          3.4250     0.0000     1.1980 ca         1 H4W      -0.055300
      5 C26          4.1160     0.0010     0.0010 ca         1 H4W      -0.142000
      6 C25          3.4260     0.0010    -1.1960 ca         1 H4W      -0.100000
      7 C24          2.0440    -0.0050    -1.1980 ca         1 H4W      -0.172000
      8 C14          4.1790     0.0010     2.5030 c3         1 H4W      -0.037100
      9 C13          4.4350    -1.4420     2.9460 c3         1 H4W      -0.076400
     10 C12          5.2000    -1.4420     4.2700 c3         1 H4W      -0.082400
     11 C11          5.4550    -2.8850     4.7120 c3         1 H4W      -0.081400
     12 C10          6.2200    -2.8840     6.0370 c3         1 H4W       0.136400
     13 O09          6.4590    -4.2320     6.4490 os         1 H4W      -0.428600
     14 C3'          7.1710    -4.3450     7.6820 c3         1 H4W       0.139100
     15 C2'          6.1840    -4.4240     8.8670 c3         1 H4W       0.110800
     16 N1'          6.8090    -5.3850     9.8110 n7         1 H4W      -0.791200
     17 C5'          7.3800    -6.4400     8.9350 c3         1 H4W       0.138800
     18 C4'          7.9580    -5.6710     7.7260 c3         1 H4W      -0.061700
     19 C08          7.7370    -6.4630     6.4380 c3         1 H4W      -0.110700
     20 C06          8.5530    -7.7300     6.4790 ca         1 H4W       0.475600
     21 N01          9.8540    -7.6580     6.6920 nb         1 H4W      -0.771000
     22 C02         10.6100    -8.7450     6.7370 ca         1 H4W       0.710200
     23 N02         11.9760    -8.6240     6.9650 nv         1 H4W      -1.015500
     24 C03         10.0500   -10.0060     6.5620 ca         1 H4W      -0.330300
     25 C04          8.6890   -10.1120     6.3370 ca         1 H4W      -0.005300
     26 C07          8.0430   -11.4580     6.1400 c3         1 H4W      -0.050800
     27 C05          7.9300    -8.9490     6.3010 ca         1 H4W      -0.312300
     28 H1           1.5020    -0.0010     2.1380 ha         1 H4W       0.145000
     29 H2           5.1990     0.0040     0.0010 ha         1 H4W       0.135000
     30 H3           3.9690    -0.0000    -2.1330 ha         1 H4W       0.136000
     31 H4           1.5040    -0.0050    -2.1370 ha         1 H4W       0.144000
     32 H5           3.5930     0.5110     3.2580 hc         1 H4W       0.051200
     33 H6           5.1250     0.5120     2.3730 hc         1 H4W       0.051200
     34 H7           3.4880    -1.9530     3.0760 hc         1 H4W       0.048700
     35 H8           5.0200    -1.9530     2.1900 hc         1 H4W       0.048700
     36 H9           4.6150    -0.9310     5.0250 hc         1 H4W       0.042200
     37 H10          6.1470    -0.9320     4.1400 hc         1 H4W       0.042200
     38 H11          6.0400    -3.3960     3.9570 hc         1 H4W       0.054200
     39 H12          4.5080    -3.3950     4.8420 hc         1 H4W       0.054200
     40 H13          5.6340    -2.3740     6.7920 h1         1 H4W       0.024700
     41 H14          7.1660    -2.3730     5.9070 h1         1 H4W       0.024700
     42 H15          7.8440    -3.5060     7.8120 h1         1 H4W       0.050700
     43 H16          6.0780    -3.4520     9.3340 h1         1 H4W       0.045700
     44 H17          5.2230    -4.7970     8.5320 h1         1 H4W       0.045700
     45 H18          6.1030    -5.7840    10.3980 hn         1 H4W       0.346800
     46 H20          6.6030    -7.1210     8.6110 h1         1 H4W       0.045700
     47 H21          8.1680    -6.9730     9.4530 h1         1 H4W       0.045700
     48 H22          9.0120    -5.4740     7.8780 hc         1 H4W       0.085700
     49 H23          8.0440    -5.8640     5.5880 hc         1 H4W       0.066700
     50 H24          6.6870    -6.7130     6.3430 hc         1 H4W       0.066700
     51 H25         12.5340    -9.4440     7.1030 hn         1 H4W       0.437800
     52 H26         12.4080    -7.7220     6.9510 hn         1 H4W       0.437800
     53 H27         10.6710   -10.8920     6.5990 ha         1 H4W       0.133000
     54 H28          7.1770   -11.3530     5.4980 hc         1 H4W       0.046367
     55 H29          8.7520   -12.1360     5.6810 hc         1 H4W       0.046367
     56 H30          7.7340   -11.8540     7.1000 hc         1 H4W       0.046367
     57 H31          6.8620    -8.9970     6.1270 ha         1 H4W       0.137000
@<TRIPOS>BOND
     1    26    25 1
     2    25    24 ar
     3    25    27 ar
     4    24    22 ar
     5    27    20 ar
     6    22    23 1
     7    22    21 ar
     8    20    21 ar
     9    20    19 1
    10    17    16 1
    11    17    18 1
    12    13    12 1
    13    13    14 1
    14    19    18 1
    15    16    15 1
    16    18    14 1
    17    12    11 1
    18    14    15 1
    19    11    10 1
    20    10     9 1
    21     6     5 ar
    22     6     7 ar
    23     5     4 ar
    24     7     2 ar
    25     9     8 1
    26     4     8 1
    27     4     3 ar
    28     2     3 ar
    29     2     1 1
    30     3    28 1
    31     5    29 1
    32     6    30 1
    33     7    31 1
    34     8    32 1
    35     8    33 1
    36     9    34 1
    37     9    35 1
    38    10    36 1
    39    10    37 1
    40    11    38 1
    41    11    39 1
    42    12    40 1
    43    12    41 1
    44    14    42 1
    45    15    43 1
    46    15    44 1
    47    16    45 1
    48    17    46 1
    49    17    47 1
    50    18    48 1
    51    19    49 1
    52    19    50 1
    53    23    51 1
    54    23    52 1
    55    24    53 1
    56    26    54 1
    57    26    55 1
    58    26    56 1
    59    27    57 1
@<TRIPOS>SUBSTRUCTURE
     1 H4W         1 TEMP              0 ****  ****    0 ROOT
