@<TRIPOS>MOLECULE
H50
   31    33     1     0     0
SMALL
bcc


@<TRIPOS>ATOM
      1 CAL         0.3660    0.0670   -0.1790 cx        1 H50     -0.120400
      2 CAM         1.7890   -0.1570    0.2320 cx        1 H50     -0.120400
      3 CAU         0.7220    0.0380    1.2860 cx        1 H50     -0.196700
      4 CAN         0.3260   -1.2370    2.0730 c         1 H50      0.946600
      5 OAB        -0.6330   -1.9200    1.6270 o         1 H50     -0.821300
      6 OAA         1.0060   -1.5250    3.0960 o         1 H50     -0.821300
      7 CAS         0.7170    1.2670    2.0880 ca        1 H50      0.052700
      8 CAJ         1.4710    1.3170    3.2680 ca        1 H50     -0.146000
      9 CAO         1.4930    2.4860    4.0470 ca        1 H50      0.129900
     10 FAC         2.2520    2.5050    5.1730 f         1 H50     -0.154900
     11 CAH        -0.0400    2.3900    1.7210 ca        1 H50     -0.160000
     12 CAI        -0.0160    3.5450    2.4910 ca        1 H50     -0.106000
     13 CAT         0.7530    3.6280    3.6610 cp        1 H50     -0.133000
     14 CAR         0.7570    4.8690    4.4290 cp        1 H50      0.017000
     15 CAK         0.6780    4.8560    5.8280 ca        1 H50     -0.107000
     16 CAQ         0.6580    6.0540    6.5470 ca        1 H50      0.021400
     17 CL1         0.5580    5.9940    8.2430 cl        1 H50     -0.089400
     18 CAP         0.7170    7.2810    5.8730 ca        1 H50      0.003400
     19 CL2         0.6940    8.7560    6.7180 cl        1 H50     -0.098400
     20 CAF         0.7990    7.2980    4.4760 ca        1 H50     -0.124000
     21 CAG         0.8180    6.1050    3.7640 ca        1 H50     -0.124000
     22 H1          0.0970    1.0190   -0.6670 hc        1 H50      0.060200
     23 H2         -0.2290   -0.7870   -0.5570 hc        1 H50      0.060200
     24 H3          2.2320   -1.1630    0.1300 hc        1 H50      0.060200
     25 H4          2.5290    0.6440    0.0610 hc        1 H50      0.060200
     26 H6          2.0050    0.4050    3.5980 ha        1 H50      0.205000
     27 H7         -0.6710    2.3490    0.8210 ha        1 H50      0.135000
     28 H8         -0.6210    4.4130    2.1880 ha        1 H50      0.118000
     29 H9          0.6390    3.8900    6.3590 ha        1 H50      0.168000
     30 H10         0.8500    8.2590    3.9430 ha        1 H50      0.140000
     31 H11         0.8880    6.1260    2.6650 ha        1 H50      0.143000
@<TRIPOS>BOND
     1    1    2 1   
     2    1    3 1   
     3    1   22 1   
     4    1   23 1   
     5    2    3 1   
     6    2   24 1   
     7    2   25 1   
     8    3    4 1   
     9    3    7 1   
    10    4    5 1   
    11    4    6 1   
    12    7    8 ar  
    13    7   11 ar  
    14    8    9 ar  
    15    8   26 1   
    16    9   10 1   
    17    9   13 ar  
    18   11   12 ar  
    19   11   27 1   
    20   12   13 ar  
    21   12   28 1   
    22   13   14 1   
    23   14   15 ar  
    24   14   21 ar  
    25   15   16 ar  
    26   15   29 1   
    27   16   17 1   
    28   16   18 ar  
    29   18   19 1   
    30   18   20 ar  
    31   20   21 ar  
    32   20   30 1   
    33   21   31 1   
@<TRIPOS>SUBSTRUCTURE
     1 H50         1 TEMP              0 ****  ****    0 ROOT
