@<TRIPOS>MOLECULE
molecule
   31    33     1     0     0
SMALL
bcc


@<TRIPOS>ATOM
      1 CAL          0.0000     0.0000     0.0000 cx         1 H50      -0.131400
      2 CAM          1.5300     0.0000     0.0000 cx         1 H50      -0.131400
      3 CAU          0.7650     0.0000     1.3250 cx         1 H50      -0.168700
      4 CAN          0.7650    -1.2760     2.1290 c          1 H50       0.926600
      5 OAB          0.1760    -2.2470     1.7190 o          1 H50      -0.831300
      6 OAA          1.4200    -1.3320     3.2980 o          1 H50      -0.831300
      7 CAS          0.7640     1.2740     2.1290 ca         1 H50       0.027700
      8 CAJ          1.4400     1.3290     3.3340 ca         1 H50      -0.128000
      9 CAO          1.4420     2.4960     4.0760 ca         1 H50       0.124900
     10 FAC          2.1020     2.5490     5.2540 f          1 H50      -0.149900
     11 CAH          0.0920     2.3860     1.6550 ca         1 H50      -0.165000
     12 CAI          0.0880     3.5580     2.3860 ca         1 H50      -0.110000
     13 CAT          0.7610     3.6190     3.6030 cp         1 H50      -0.132000
     14 CAR          0.7590     4.8750     4.3940 cp         1 H50       0.008000
     15 CAK          0.4270     4.8490     5.7470 ca         1 H50      -0.096000
     16 CAQ          0.4270     6.0220     6.4770 ca         1 H50       0.031400
     17 Cl1          0.0140     5.9920     8.1630 cl         1 H50      -0.104400
     18 CAP          0.7580     7.2200     5.8670 ca         1 H50       0.017400
     19 Cl2          0.7570     8.6900     6.7910 cl         1 H50      -0.115400
     20 CAF          1.0890     7.2500     4.5240 ca         1 H50      -0.122000
     21 CAG          1.0970     6.0830     3.7860 ca         1 H50      -0.117000
     22 H1          -0.4670     0.9390    -0.2700 hc         1 H50       0.067700
     23 H2          -0.4670    -0.9390    -0.2700 hc         1 H50       0.067700
     24 H3           1.9980     0.9390    -0.2700 hc         1 H50       0.067700
     25 H4           1.9980    -0.9390    -0.2700 hc         1 H50       0.067700
     26 H6           1.9870     0.4630     3.6870 ha         1 H50       0.230000
     27 H7          -0.4310     2.3390     0.7080 ha         1 H50       0.131000
     28 H8          -0.4400     4.4280     2.0140 ha         1 H50       0.118000
     29 H9           0.0920     3.9260     6.2040 ha         1 H50       0.166000
     30 H10          1.3500     8.1890     4.0520 ha         1 H50       0.139000
     31 H11          1.3560     6.1070     2.7350 ha         1 H50       0.144000
@<TRIPOS>BOND
     1    19    18 1
     2    18    16 ar
     3    18    20 ar
     4    17    16 1
     5    16    15 ar
     6    20    21 ar
     7    15    14 ar
     8    21    14 ar
     9    14    13 1
    10    13    12 ar
    11    13     9 ar
    12    10     9 1
    13    12    11 ar
    14     9     8 ar
    15    11     7 ar
    16     8     7 ar
    17     7     3 1
    18     3     1 1
    19     3     2 1
    20     3     4 1
    21     5     4 1
    22     1     2 1
    23     4     6 1
    24     1    22 1
    25     1    23 1
    26     2    24 1
    27     2    25 1
    28     8    26 1
    29    11    27 1
    30    12    28 1
    31    15    29 1
    32    20    30 1
    33    21    31 1
@<TRIPOS>SUBSTRUCTURE
     1 H50         1 TEMP              0 ****  ****    0 ROOT
