@<TRIPOS>MOLECULE
molecule
   43    45     1     0     0
SMALL
bcc


@<TRIPOS>ATOM
      1 O1           0.0000     0.0000     0.0000 o          1 H52      -0.639800
      2 S5           1.4200     0.0000     0.0000 sy         1 H52       1.448200
      3 O2           2.2420     0.0000     1.1590 o          1 H52      -0.639800
      4 N21          1.8710    -1.3340    -0.8700 n3         1 H52      -0.818500
      5 C22          3.1800    -1.9080    -0.6470 c3         1 H52       0.243500
      6 C2M          4.1480    -0.8080    -0.2100 c3         1 H52      -0.139100
      7 C23          3.1030    -2.9890     0.4530 c3         1 H52       0.153800
      8 N24          2.4450    -4.1410    -0.0250 n7         1 H52      -0.827200
      9 C25          1.0470    -3.8840    -0.3530 c3         1 H52       0.164800
     10 C26          0.9370    -3.4430    -1.7950 c3         1 H52      -0.088400
     11 C27          0.9210    -1.9010    -1.8520 c3         1 H52       0.225800
     12 C5           1.8990     1.4190    -0.9250 ca         1 H52      -0.296500
     13 C10          1.4550     2.6930    -0.5450 ca         1 H52       0.067000
     14 C4           0.6330     2.8970     0.5770 ca         1 H52      -0.194600
     15 CM           0.1800     1.7330     1.4200 c3         1 H52      -0.160800
     16 C9           1.8550     3.8280    -1.2990 ca         1 H52      -0.181300
     17 C8           2.6790     3.6530    -2.4200 ca         1 H52      -0.044000
     18 C7           3.0870     2.3990    -2.7650 ca         1 H52      -0.163000
     19 C6           2.6990     1.2870    -2.0210 ca         1 H52      -0.011000
     20 C1           1.4030     5.0950    -0.8960 ca         1 H52       0.444200
     21 N2           0.6330     5.2100     0.1600 nb         1 H52      -0.690000
     22 C3           0.2490     4.1670     0.8840 ca         1 H52       0.430200
     23 H22          3.5330    -2.3590    -1.5670 h1         1 H52       0.068700
     24 H2M1         3.8330     0.1390    -0.6310 hc         1 H52       0.058367
     25 H2M2         4.1510    -0.7390     0.8710 hc         1 H52       0.058367
     26 H2M3         5.1460    -1.0440    -0.5600 hc         1 H52       0.058367
     27 H231         4.1080    -3.2560     0.7600 h1         1 H52       0.041200
     28 H232         2.5580    -2.5950     1.3020 h1         1 H52       0.041200
     29 H24          2.4980    -4.8660     0.6630 hn         1 H52       0.360800
     30 H251         0.6650    -3.1020     0.2920 h1         1 H52       0.036200
     31 H252         0.4720    -4.7910    -0.2100 h1         1 H52       0.036200
     32 H261         0.0190    -3.8290    -2.2210 hc         1 H52       0.058200
     33 H262         1.7870    -3.8160    -2.3530 hc         1 H52       0.058200
     34 H271         1.2040    -1.5790    -2.8470 h1         1 H52       0.056700
     35 H272        -0.0770    -1.5470    -1.6270 h1         1 H52       0.056700
     36 HM1          1.0170     1.0670     1.5950 hc         1 H52       0.086367
     37 HM2         -0.1960     2.0980     2.3670 hc         1 H52       0.086367
     38 HM3         -0.6050     1.1960     0.9020 hc         1 H52       0.086367
     39 H8           2.9890     4.5080    -3.0090 ha         1 H52       0.138000
     40 H7           3.7230     2.2650    -3.6310 ha         1 H52       0.136000
     41 H6           3.0380     0.3020    -2.3180 ha         1 H52       0.142000
     42 H1           1.6900     5.9760    -1.4560 h4         1 H52       0.026100
     43 H3          -0.3880     4.3300     1.7450 h4         1 H52       0.027100
@<TRIPOS>BOND
     1     1     2 2
     2     2     3 2
     3     2     4 1
     4     2    12 1
     5     4     5 1
     6     4    11 1
     7     5     6 1
     8     5     7 1
     9     5    23 1
    10     6    24 1
    11     6    25 1
    12     6    26 1
    13     7     8 1
    14     7    27 1
    15     7    28 1
    16     8     9 1
    17     8    29 1
    18     9    10 1
    19     9    30 1
    20     9    31 1
    21    10    11 1
    22    10    32 1
    23    10    33 1
    24    11    34 1
    25    11    35 1
    26    12    13 ar
    27    12    19 ar
    28    13    14 ar
    29    13    16 ar
    30    14    15 1
    31    14    22 ar
    32    15    36 1
    33    15    37 1
    34    15    38 1
    35    16    17 ar
    36    16    20 ar
    37    17    18 ar
    38    17    39 1
    39    18    19 ar
    40    18    40 1
    41    19    41 1
    42    20    21 ar
    43    20    42 1
    44    21    22 ar
    45    22    43 1
@<TRIPOS>SUBSTRUCTURE
     1 H52         1 TEMP              0 ****  ****    0 ROOT
