@<TRIPOS>MOLECULE
molecule
   35    36     1     0     0
SMALL
bcc


@<TRIPOS>ATOM
      1 O5           0.0000     0.0000     0.0000 os         1 H53      -0.383600
      2 C5           1.4270     0.0000     0.0000 c3         1 H53       0.135100
      3 C4           1.9430     0.0000     1.4410 c3         1 H53       0.105100
      4 C3           1.4580     1.2720     2.1460 c3         1 H53       0.101100
      5 C2          -0.0650     1.3600     2.0000 c3         1 H53       0.115100
      6 C1          -0.4320     1.2570     0.5180 c3         1 H53       0.189400
      7 C7          -1.9260     1.3750     0.3620 ca         1 H53      -0.092300
      8 C12         -2.5180     2.6280     0.2970 ca         1 H53       0.138100
      9 O12         -1.7510     3.7480     0.3680 oh         1 H53      -0.491100
     10 C11         -3.8940     2.7370     0.1490 ca         1 H53      -0.190000
     11 C10         -4.6740     1.5990     0.0770 ca         1 H53      -0.120000
     12 C9          -4.0810     0.3460     0.1480 ca         1 H53       0.074100
     13 O9          -4.8480    -0.7730     0.0770 oh         1 H53      -0.520100
     14 C8          -2.7060     0.2370     0.2900 ca         1 H53      -0.105000
     15 O2          -0.5260     2.6090     2.5190 oh         1 H53      -0.582800
     16 O3           1.8040     1.2190     3.5300 oh         1 H53      -0.609800
     17 O4           3.3720    -0.0280     1.4360 oh         1 H53      -0.604800
     18 C6           1.9360    -1.2490    -0.7230 c3         1 H53       0.149400
     19 O6           1.5550    -1.1910    -2.0980 oh         1 H53      -0.601800
     20 H5           1.7840     0.8870    -0.5090 h1         1 H53       0.066700
     21 H4           1.5600    -0.8690     1.9620 h1         1 H53       0.057700
     22 H3           1.9160     2.1380     1.6840 h1         1 H53       0.063700
     23 H2          -0.5270     0.5440     2.5430 h1         1 H53       0.057700
     24 H1           0.0560     2.0550    -0.0280 h1         1 H53       0.070700
     25 HO12        -2.0100     4.3500    -0.3100 ho         1 H53       0.415000
     26 H11         -4.3570     3.7150     0.0960 ha         1 H53       0.138000
     27 H10         -5.7470     1.6850    -0.0390 ha         1 H53       0.141000
     28 HO9         -4.8990    -1.0640    -0.8180 ho         1 H53       0.417000
     29 H8          -2.2430    -0.7410     0.3450 ha         1 H53       0.159000
     30 HO2         -0.7330     2.5120     3.4340 ho         1 H53       0.409000
     31 HO3          2.3790     1.9370     3.7390 ho         1 H53       0.413000
     32 HO4          3.6780    -0.6130     2.1090 ho         1 H53       0.413000
     33 H61          1.5050    -2.1320    -0.2660 h1         1 H53       0.035700
     34 H62          3.0160    -1.2940    -0.6490 h1         1 H53       0.035700
     35 HO6          1.9060    -1.9380    -2.5530 ho         1 H53       0.403000
@<TRIPOS>BOND
     1     1     2 1
     2     1     6 1
     3     2     3 1
     4     2    18 1
     5     2    20 1
     6     3     4 1
     7     3    17 1
     8     3    21 1
     9     4     5 1
    10     4    16 1
    11     4    22 1
    12     5     6 1
    13     5    15 1
    14     5    23 1
    15     6     7 1
    16     6    24 1
    17     7     8 ar
    18     7    14 ar
    19     8     9 1
    20     8    10 ar
    21     9    25 1
    22    10    11 ar
    23    10    26 1
    24    11    12 ar
    25    11    27 1
    26    12    13 1
    27    12    14 ar
    28    13    28 1
    29    14    29 1
    30    15    30 1
    31    16    31 1
    32    17    32 1
    33    18    19 1
    34    18    33 1
    35    18    34 1
    36    19    35 1
@<TRIPOS>SUBSTRUCTURE
     1 H53         1 TEMP              0 ****  ****    0 ROOT
