@<TRIPOS>MOLECULE
H53
   35    36     1     0     0
SMALL
bcc


@<TRIPOS>ATOM
      1 O5          0.0860    0.1050   -0.0190 os        1 H53     -0.423600
      2 C5          1.5070   -0.0580    0.0010 c3        1 H53      0.099100
      3 C4          2.0010   -0.1140    1.4520 c3        1 H53      0.123100
      4 C3          1.5950    1.1800    2.1720 c3        1 H53      0.105100
      5 C2          0.0810    1.4190    2.0360 c3        1 H53      0.089100
      6 C1         -0.3440    1.3450    0.5550 c3        1 H53      0.167400
      7 C7         -1.8360    1.3930    0.4070 ca        1 H53     -0.085300
      8 C12        -2.4900    2.6240    0.2110 ca        1 H53      0.084100
      9 O12        -1.7020    3.7570    0.2080 oh        1 H53     -0.511100
     10 C11        -3.8820    2.6860    0.0510 ca        1 H53     -0.173000
     11 C10        -4.6380    1.5210    0.0870 ca        1 H53     -0.111000
     12 C9         -3.9890    0.2910    0.2870 ca        1 H53      0.094100
     13 O9         -4.7940   -0.8260    0.3170 oh        1 H53     -0.495100
     14 C8         -2.6000    0.2250    0.4470 ca        1 H53     -0.152000
     15 O2         -0.1450    2.7000    2.6020 oh        1 H53     -0.608800
     16 O3          1.9590    1.0140    3.5320 oh        1 H53     -0.608800
     17 O4          3.4110   -0.2420    1.4140 oh        1 H53     -0.596800
     18 C6          1.7820   -1.3770   -0.7270 c3        1 H53      0.140400
     19 O6          1.4660   -1.2820   -2.0980 oh        1 H53     -0.594800
     20 H5          1.9960    0.7950   -0.5440 h1        1 H53      0.072700
     21 H4          1.5540   -0.9990    1.9860 h1        1 H53      0.060700
     22 H3          2.1550    2.0570    1.7400 h1        1 H53      0.063700
     23 H2         -0.4830    0.6500    2.6340 h1        1 H53      0.062700
     24 H1          0.1260    2.2030   -0.0080 h1        1 H53      0.078700
     25 HO12       -2.2520    4.5020   -0.0750 ho        1 H53      0.427000
     26 H11        -4.3740    3.6570   -0.1070 ha        1 H53      0.141000
     27 H10        -5.7300    1.5470   -0.0380 ha        1 H53      0.157000
     28 HO9        -4.2240   -1.6010    0.4300 ho        1 H53      0.422000
     29 H8         -2.0960   -0.7440    0.5890 ha        1 H53      0.156000
     30 HO2        -0.9640    3.0500    2.2280 ho        1 H53      0.426000
     31 HO3         1.6290    1.7910    4.0030 ho        1 H53      0.428000
     32 HO4         3.7180   -0.1500    2.3260 ho        1 H53      0.425000
     33 H61         2.8830   -1.5950   -0.6840 h1        1 H53      0.063200
     34 H62         1.2000   -2.2080   -0.2480 h1        1 H53      0.063200
     35 HO6         0.5360   -1.0300   -2.1590 ho        1 H53      0.409000
@<TRIPOS>BOND
     1    1    2 1   
     2    1    6 1   
     3    2    3 1   
     4    2   18 1   
     5    2   20 1   
     6    3    4 1   
     7    3   17 1   
     8    3   21 1   
     9    4    5 1   
    10    4   16 1   
    11    4   22 1   
    12    5    6 1   
    13    5   15 1   
    14    5   23 1   
    15    6    7 1   
    16    6   24 1   
    17    7    8 ar  
    18    7   14 ar  
    19    8    9 1   
    20    8   10 ar  
    21    9   25 1   
    22   10   11 ar  
    23   10   26 1   
    24   11   12 ar  
    25   11   27 1   
    26   12   13 1   
    27   12   14 ar  
    28   13   28 1   
    29   14   29 1   
    30   15   30 1   
    31   16   31 1   
    32   17   32 1   
    33   18   19 1   
    34   18   33 1   
    35   18   34 1   
    36   19   35 1   
@<TRIPOS>SUBSTRUCTURE
     1 H53         1 TEMP              0 ****  ****    0 ROOT
