@<TRIPOS>MOLECULE
H59
   68    68     1     0     0
SMALL
bcc


@<TRIPOS>ATOM
      1 C1          0.5640    1.0520    0.8730 c2        1 H59     -0.307000
      2 C2          1.6000    0.1120    0.8020 c2        1 H59      0.163000
      3 C3          2.9150    0.4050    1.2640 c2        1 H59     -0.225000
      4 C4          3.1760    1.6550    1.7920 c2        1 H59      0.170000
      5 C5          2.1110    2.7030    1.8910 c3        1 H59     -0.225000
      6 C6          0.7890    2.3450    1.4060 c1        1 H59     -0.074000
      7 C7         -0.8560   -3.6170   -2.0820 c2        1 H59     -0.337000
      8 C8         -2.2050   -3.3650   -2.0740 c2        1 H59      0.164000
      9 C9         -2.5080   -2.1650   -1.1510 c3        1 H59      0.069000
     10 N10        -1.2010   -1.8300   -0.5890 n         1 H59     -0.400000
     11 C11        -0.2130   -2.6310   -1.1470 c2        1 H59      0.351000
     12 C12         1.4810   -6.5630   -4.2710 c2        1 H59     -1.004000
     13 C13         1.8890   -5.9730   -2.9840 c2        1 H59      0.149000
     14 C14         3.1180   -6.3150   -2.4980 c2        1 H59     -0.225000
     15 C15         3.9020   -7.2820   -3.2480 c2        1 H59     -0.228000
     16 C16         4.7050   -6.8850   -4.2820 c2        1 H59      0.092000
     17 C17         2.3760   -7.3270   -4.9080 c1        1 H59      0.227000
     18 C18        -0.1340   -4.6230   -2.8350 c2        1 H59      0.351000
     19 N19         1.0380   -5.0980   -2.2950 n3        1 H59     -0.248000
     20 S20        -0.0880   -6.3300   -4.9240 s6        1 H59      2.947000
     21 C21        -0.6260   -5.1040   -4.0260 c2        1 H59     -1.149000
     22 O22         0.0420   -5.9660   -6.2710 o         1 H59     -0.945000
     23 O23        -0.8350   -7.4920   -4.7020 o         1 H59     -0.945000
     24 S25         5.5980   -9.3540   -5.0690 s6        1 H59      2.815000
     25 C26         4.2990   -9.8240   -6.0320 c3        1 H59     -0.980000
     26 O27         6.7990   -9.6720   -5.7340 o         1 H59     -0.923500
     27 O28         5.4240   -9.8670   -3.7730 o         1 H59     -0.923500
     28 O29        -3.2390   -4.0010   -2.6400 oh        1 H59     -0.203000
     29 O30         1.0040   -2.5770   -0.8640 o         1 H59     -0.429000
     30 C31        -0.7070    0.6750    0.3970 c1        1 H59     -0.090000
     31 F32         4.3970    1.9900    2.2390 f         1 H59     -0.076000
     32 C33         3.9550   -0.6460    1.1670 c3        1 H59     -0.184000
     33 C34        -3.2160   -1.0620   -1.8920 c2        1 H59     -0.122000
     34 C35        -6.5460   -4.2200   -3.6390 c3        1 H59     -0.212000
     35 C36        -6.8280   -2.8210   -4.1000 c3        1 H59     -0.212000
     36 C37        -4.5500   -0.9760   -1.8500 c2        1 H59     -0.192000
     37 C38        -2.3790   -0.0930   -2.6380 c3        1 H59     -0.184000
     38 H2          1.4100   -0.8980    0.3720 ha        1 H59      0.204000
     39 H5          2.0050    3.0250    2.9710 hc        1 H59      0.181500
     40 H6          2.4440    3.6270    1.3280 hc        1 H59      0.181500
     41 H9         -3.1690   -2.5340   -0.3090 h1        1 H59      0.133000
     42 H14         3.5320   -5.9340   -1.5560 ha        1 H59      0.155000
     43 H15         3.8670   -8.3260   -2.8810 ha        1 H59      0.184000
     44 H17         4.7530   -5.8060   -4.5500 h4        1 H59      0.152000
     45 HN19        1.4080   -4.6410   -1.4820 hn        1 H59      0.277000
     46 H21        -1.4770   -4.5500   -4.4610 h4        1 H59      0.184000
     47 HN24        6.0580   -7.1980   -5.7150 hn        1 H59      0.254000
     48 H26         3.3740   -9.1930   -5.9190 h1        1 H59      0.176667
     49 H26A        4.5400   -9.8210   -7.1250 h1        1 H59      0.176667
     50 H26B        3.9740  -10.8680   -5.7860 h1        1 H59      0.176667
     51 HO29       -2.9120   -4.8030   -3.0950 ho        1 H59      0.261000
     52 H31        -1.0130   -0.8620   -0.2020 hn        1 H59      0.327000
     53 H31A       -1.5130    1.4190    0.4600 ha        1 H59      0.087000
     54 H33         3.9260   -1.2980    2.0760 hc        1 H59      0.099667
     55 H33A        4.9740   -0.1920    1.0930 hc        1 H59      0.099667
     56 H33B        3.7830   -1.2900    0.2690 hc        1 H59      0.099667
     57 H35        -7.0620   -4.4280   -2.6700 hc        1 H59      0.070833
     58 H35A       -6.9020   -4.9650   -4.3910 hc        1 H59      0.070833
     59 H36        -5.4480   -4.3700   -3.4870 hc        1 H59      0.070833
     60 H36A       -6.3590   -2.6310   -5.0960 hc        1 H59      0.070833
     61 H36B       -7.9270   -2.6470   -4.1940 hc        1 H59      0.070833
     62 H37        -6.4150   -2.0760   -3.3740 hc        1 H59      0.070833
     63 H37A       -5.1000   -0.1920   -2.3870 ha        1 H59      0.122000
     64 H37B       -5.1730   -1.6860   -1.2900 ha        1 H59      0.122000
     65 H38        -3.0050    0.5500   -3.3050 hc        1 H59      0.088333
     66 H38A       -1.8320    0.5720   -1.9200 hc        1 H59      0.088333
     67 H38B       -1.6240   -0.6260   -3.2680 hc        1 H59      0.088333
     68 N24         5.4970   -7.7020   -5.0610 n3        1 H59     -0.801000
@<TRIPOS>BOND
     1    1    2 1   
     2    1    6 1   
     3    1   30 1   
     4    2    3 1   
     5    2   38 1   
     6    3    4 1   
     7    3   32 1   
     8    4    5 1   
     9    4   31 1   
    10    5    6 1   
    11    5   39 1   
    12    5   40 1   
    13    7    8 1   
    14    7   11 1   
    15    7   18 1   
    16    8    9 1   
    17    8   28 1   
    18    9   10 1   
    19    9   33 1   
    20    9   41 1   
    21   10   11 1   
    22   10   52 1   
    23   11   29 1   
    24   12   13 1   
    25   12   17 1   
    26   12   20 1   
    27   13   14 1   
    28   13   19 1   
    29   14   15 1   
    30   14   42 1   
    31   15   16 1   
    32   15   43 1   
    33   16   44 1   
    34   16   68 1   
    35   18   19 1   
    36   18   21 1   
    37   19   45 1   
    38   20   21 1   
    39   20   22 1   
    40   20   23 1   
    41   21   46 1   
    42   24   25 1   
    43   24   26 1   
    44   24   27 1   
    45   24   68 1   
    46   25   48 1   
    47   25   49 1   
    48   25   50 1   
    49   28   51 1   
    50   30   53 1   
    51   32   54 1   
    52   32   55 1   
    53   32   56 1   
    54   33   36 1   
    55   33   37 1   
    56   34   35 1   
    57   34   57 1   
    58   34   58 1   
    59   34   59 1   
    60   35   60 1   
    61   35   61 1   
    62   35   62 1   
    63   36   63 1   
    64   36   64 1   
    65   37   65 1   
    66   37   66 1   
    67   37   67 1   
    68   47   68 1   
@<TRIPOS>SUBSTRUCTURE
     1 H59         1 TEMP              0 ****  ****    0 ROOT
