@<TRIPOS>MOLECULE
molecule
   26    26     1     0     0
SMALL
bcc


@<TRIPOS>ATOM
      1 C4           0.0000     0.0000     0.0000 ca         1 H5A      -0.034600
      2 C5           1.3980     0.0000     0.0000 ca         1 H5A      -0.216500
      3 C6           2.0880     0.0000     1.1970 ca         1 H5A       0.121100
      4 C7           1.3920    -0.0010     2.4030 ca         1 H5A       0.017100
      5 C8           2.3980    -1.2660     4.1460 c3         1 H5A       0.135700
      6 C10         -0.7400    -0.0000    -1.2760 c          1 H5A       0.881200
      7 C1          -2.1040    -0.0020     3.5170 c3         1 H5A       0.129200
      8 C2          -0.0010    -0.0000     2.4070 ca         1 H5A       0.121100
      9 C3          -0.6960    -0.0060     1.2130 ca         1 H5A      -0.216500
     10 O2           2.0730     0.0050     3.5790 os         1 H5A      -0.331900
     11 O3           3.4480     0.0000     1.1970 os         1 H5A      -0.334900
     12 C9           4.0970     0.0000    -0.0760 c3         1 H5A       0.129200
     13 O4          -0.1330    -0.0010    -2.3290 o          1 H5A      -0.833800
     14 O5          -2.0870    -0.0010    -1.2740 o          1 H5A      -0.833800
     15 H1           1.9400     0.0010    -0.9380 ha         1 H5A       0.159500
     16 H2           1.8050    -1.4260     5.0380 h1         1 H5A       0.022033
     17 H3           3.4500    -1.2880     4.4040 h1         1 H5A       0.022033
     18 H4           2.1870    -2.0480     3.4270 h1         1 H5A       0.022033
     19 H5          -2.4390    -0.8810     2.9790 h1         1 H5A       0.035867
     20 H6          -2.5110    -0.0160     4.5210 h1         1 H5A       0.035867
     21 H7          -2.4450     0.8880     3.0020 h1         1 H5A       0.035867
     22 H8          -1.7800    -0.0060     1.2160 ha         1 H5A       0.159500
     23 H9           3.8090    -0.8860    -0.6280 h1         1 H5A       0.035867
     24 H10          5.1710     0.0040     0.0660 h1         1 H5A       0.035867
     25 H11          3.8030     0.8830    -0.6310 h1         1 H5A       0.035867
     26 O1          -0.6770    -0.0020     3.5870 os         1 H5A      -0.334900
@<TRIPOS>BOND
     1     5    10 1
     2    10     4 1
     3    26     7 1
     4    26     8 1
     5    11    12 1
     6    11     3 1
     7     4     8 ar
     8     4     3 ar
     9     8     9 ar
    10     3     2 ar
    11     2     1 ar
    12     9     1 ar
    13     1     6 1
    14     6    13 1
    15     6    14 1
    16     2    15 1
    17     5    16 1
    18     5    17 1
    19     5    18 1
    20     7    19 1
    21     7    20 1
    22     7    21 1
    23     9    22 1
    24    12    23 1
    25    12    24 1
    26    12    25 1
@<TRIPOS>SUBSTRUCTURE
     1 H5A         1 TEMP              0 ****  ****    0 ROOT
