@<TRIPOS>MOLECULE
H5H
   57    60     1     0     0
SMALL
bcc


@<TRIPOS>ATOM
      1 C19          0.0000     0.0000     0.0000 c3         1 H5H       0.246200
      2 C22         -3.1750    -0.0730    -2.6350 ca         1 H5H      -0.085000
      3 C21         -2.3490    -0.0850    -1.5180 ca         1 H5H       0.055900
      4 C16         -0.6610     2.4090     2.7700 c3         1 H5H       0.226400
      5 C12          2.0340     0.0000     1.4470 c3         1 H5H      -0.072000
      6 C13          1.4530     1.2140     2.1780 c3         1 H5H       0.144100
      7 C23         -4.5420    -0.1920    -2.4820 ca         1 H5H      -0.090500
      8 C15         -0.0750     1.1670     2.0940 c3         1 H5H       0.148100
      9 C10          4.2600     0.7610     0.5750 cc         1 H5H      -0.431600
     10 C01         10.8310     3.8320    -0.4820 c3         1 H5H       0.181100
     11 C03          8.9890     2.3950    -0.8500 ca         1 H5H       0.015600
     12 C04          9.1230     1.5850     0.2720 ca         1 H5H       0.046400
     13 C06          8.0040     1.0180     0.8550 ca         1 H5H       0.134400
     14 C08          6.7400     1.2590     0.3160 ca         1 H5H      -0.142500
     15 C09          5.5530     0.5620     0.9610 cd         1 H5H       0.320800
     16 C24         -5.0900    -0.3260    -1.2200 ca         1 H5H      -0.086300
     17 C25         -6.5800    -0.4840    -1.0590 c3         1 H5H       0.063200
     18 C26         -4.2700    -0.3440    -0.1050 ca         1 H5H      -0.090500
     19 C27         -2.9020    -0.2210    -0.2510 ca         1 H5H      -0.085000
     20 C28          1.5310     0.0000     0.0000 c3         1 H5H       0.164100
     21 C32          6.6080     2.0720    -0.8100 ca         1 H5H       0.134400
     22 C34          7.7300     2.6410    -1.3860 ca         1 H5H       0.046400
     23 F07          8.1350     0.2300     1.9450 f          1 H5H      -0.102400
     24 F33          5.3860     2.3070    -1.3350 f          1 H5H      -0.102400
     25 F35          7.6020     3.4330    -2.4730 f          1 H5H      -0.108400
     26 N02         10.1230     2.9690    -1.4370 nu         1 H5H      -0.423600
     27 N11          3.4970     0.0750     1.4580 na         1 H5H       0.617400
     28 N30          4.2730    -0.5000     2.3070 nc         1 H5H      -0.378800
     29 N31          5.5040    -0.2340     2.0440 nd         1 H5H      -0.281000
     30 O14          1.9290     2.4140     1.5640 oh         1 H5H      -0.572800
     31 O17         -2.0870     2.3100     2.7950 oh         1 H5H      -0.581800
     32 O18         -0.4750     1.1390     0.7220 os         1 H5H      -0.355600
     33 O29          2.0090    -1.1680    -0.6710 oh         1 H5H      -0.578800
     34 S20         -0.6040     0.0730    -1.7090 ss         1 H5H      -0.310000
     35 H191        -0.3590    -0.9040     0.4770 h2         1 H5H       0.047700
     36 H162        -0.3710     3.2930     2.2160 h1         1 H5H      -0.000800
     37 H161        -0.2870     2.4790     3.7840 h1         1 H5H      -0.000800
     38 H121         1.7090    -0.9080     1.9420 h1         1 H5H       0.078700
     39 H131         1.7570     1.1880     3.2170 h1         1 H5H       0.027700
     40 H231        -5.1870    -0.1820    -3.3530 ha         1 H5H       0.108500
     41 H151        -0.4350     0.2750     2.5910 h1         1 H5H       0.027700
     42 H101         3.8980     1.5730    -0.0440 h4         1 H5H       0.187000
     43 H013        11.6220     3.2670    -0.0040 h1         1 H5H       0.010367
     44 H012        10.1350     4.1870     0.2680 h1         1 H5H       0.010367
     45 H011        11.2580     4.6770    -1.0080 h1         1 H5H       0.010367
     46 H253        -7.0490    -0.5010    -2.0350 hc         1 H5H       0.008367
     47 H251        -6.9710     0.3470    -0.4850 hc         1 H5H       0.008367
     48 H252        -6.7910    -1.4120    -0.5410 hc         1 H5H       0.008367
     49 H261        -4.7020    -0.4500     0.8820 ha         1 H5H       0.108500
     50 H271        -2.2610    -0.2320     0.6220 ha         1 H5H       0.119500
     51 H281         1.8920     0.8870    -0.5070 h1         1 H5H       0.053700
     52 H021        10.1200     3.1970    -2.4120 hn         1 H5H       0.296800
     53 H141         2.2570     2.9980     2.2280 ho         1 H5H       0.401000
     54 H171        -2.4440     3.0340     3.2820 ho         1 H5H       0.394000
     55 H291         1.9680    -1.0340    -1.6030 ho         1 H5H       0.419000
     56 F05         10.3480     1.3520     0.7930 f          1 H5H      -0.108400
     57 H221        -2.7470     0.0330    -3.6250 ha         1 H5H       0.119500
@<TRIPOS>BOND
     1     1    20 1   
     2     1    32 1   
     3     1    34 1   
     4     1    35 1   
     5     2     3 ar  
     6     2     7 ar  
     7     2    57 1   
     8     3    19 ar  
     9     3    34 1   
    10     4     8 1   
    11     4    31 1   
    12     4    36 1   
    13     4    37 1   
    14     5     6 1   
    15     5    20 1   
    16     5    27 1   
    17     5    38 1   
    18     6     8 1   
    19     6    30 1   
    20     6    39 1   
    21     7    16 ar  
    22     7    40 1   
    23     8    32 1   
    24     8    41 1   
    25     9    15 2   
    26     9    27 1   
    27     9    42 1   
    28    10    26 1   
    29    10    43 1   
    30    10    44 1   
    31    10    45 1   
    32    11    12 ar  
    33    11    22 ar  
    34    11    26 1   
    35    12    13 ar  
    36    12    56 1   
    37    13    14 ar  
    38    13    23 1   
    39    14    15 1   
    40    14    21 ar  
    41    15    29 1   
    42    16    17 1   
    43    16    18 ar  
    44    17    46 1   
    45    17    47 1   
    46    17    48 1   
    47    18    19 ar  
    48    18    49 1   
    49    19    50 1   
    50    20    33 1   
    51    20    51 1   
    52    21    22 ar  
    53    21    24 1   
    54    22    25 1   
    55    26    52 1   
    56    27    28 1   
    57    28    29 2   
    58    30    53 1   
    59    31    54 1   
    60    33    55 1   
@<TRIPOS>SUBSTRUCTURE
     1 H5H         1 TEMP              0 ****  ****    0 ROOT
