@<TRIPOS>MOLECULE
molecule
   57    60     1     0     0
SMALL
bcc


@<TRIPOS>ATOM
      1 C19          0.0000     0.0000     0.0000 c3         1 H5H       0.189200
      2 C22         -3.1750    -0.0730    -2.6350 ca         1 H5H      -0.112000
      3 C21         -2.3490    -0.0850    -1.5180 ca         1 H5H       0.031900
      4 C16         -0.6610     2.4090     2.7700 c3         1 H5H       0.151400
      5 C12          2.0340     0.0000     1.4470 c3         1 H5H       0.074000
      6 C13          1.4530     1.2140     2.1780 c3         1 H5H       0.099100
      7 C23         -4.5420    -0.1920    -2.4820 ca         1 H5H      -0.115500
      8 C15         -0.0750     1.1670     2.0940 c3         1 H5H       0.127100
      9 C10          4.2600     0.7610     0.5750 cc         1 H5H      -0.250600
     10 C01         10.8310     3.8320    -0.4820 c3         1 H5H       0.199100
     11 C03          8.9890     2.3950    -0.8500 ca         1 H5H       0.125600
     12 C04          9.1230     1.5850     0.2720 ca         1 H5H       0.058900
     13 C06          8.0040     1.0180     0.8550 ca         1 H5H       0.145900
     14 C08          6.7400     1.2590     0.3160 ca         1 H5H      -0.161500
     15 C09          5.5530     0.5620     0.9610 cd         1 H5H       0.319800
     16 C24         -5.0900    -0.3260    -1.2200 ca         1 H5H      -0.083300
     17 C25         -6.5800    -0.4840    -1.0590 c3         1 H5H      -0.047800
     18 C26         -4.2700    -0.3440    -0.1050 ca         1 H5H      -0.115500
     19 C27         -2.9020    -0.2210    -0.2510 ca         1 H5H      -0.112000
     20 C28          1.5310     0.0000     0.0000 c3         1 H5H       0.122100
     21 C32          6.6080     2.0720    -0.8100 ca         1 H5H       0.145900
     22 C34          7.7300     2.6410    -1.3860 ca         1 H5H       0.058900
     23 F07          8.1350     0.2300     1.9450 f          1 H5H      -0.105900
     24 F33          5.3860     2.3070    -1.3350 f          1 H5H      -0.105900
     25 F35          7.6020     3.4330    -2.4730 f          1 H5H      -0.117900
     26 N02         10.1230     2.9690    -1.4370 nu         1 H5H      -0.785600
     27 N11          3.4970     0.0750     1.4580 na         1 H5H       0.135400
     28 N30          4.2730    -0.5000     2.3070 nc         1 H5H      -0.202800
     29 N31          5.5040    -0.2340     2.0440 nd         1 H5H      -0.332000
     30 O14          1.9290     2.4140     1.5640 oh         1 H5H      -0.590800
     31 O17         -2.0870     2.3100     2.7950 oh         1 H5H      -0.597800
     32 O18         -0.4750     1.1390     0.7220 os         1 H5H      -0.376600
     33 O29          2.0090    -1.1680    -0.6710 oh         1 H5H      -0.589800
     34 S20         -0.6040     0.0730    -1.7090 ss         1 H5H      -0.215000
     35 H191        -0.3590    -0.9040     0.4770 h2         1 H5H       0.070700
     36 H162        -0.3710     3.2930     2.2160 h1         1 H5H       0.037200
     37 H161        -0.2870     2.4790     3.7840 h1         1 H5H       0.037200
     38 H121         1.7090    -0.9080     1.9420 h1         1 H5H       0.108700
     39 H131         1.7570     1.1880     3.2170 h1         1 H5H       0.063700
     40 H231        -5.1870    -0.1820    -3.3530 ha         1 H5H       0.134500
     41 H151        -0.4350     0.2750     2.5910 h1         1 H5H       0.057700
     42 H101         3.8980     1.5730    -0.0440 h4         1 H5H       0.205000
     43 H013        11.6220     3.2670    -0.0040 h1         1 H5H       0.042033
     44 H012        10.1350     4.1870     0.2680 h1         1 H5H       0.042033
     45 H011        11.2580     4.6770    -1.0080 h1         1 H5H       0.042033
     46 H253        -7.0490    -0.5010    -2.0350 hc         1 H5H       0.043700
     47 H251        -6.9710     0.3470    -0.4850 hc         1 H5H       0.043700
     48 H252        -6.7910    -1.4120    -0.5410 hc         1 H5H       0.043700
     49 H261        -4.7020    -0.4500     0.8820 ha         1 H5H       0.134500
     50 H271        -2.2610    -0.2320     0.6220 ha         1 H5H       0.139000
     51 H281         1.8920     0.8870    -0.5070 h1         1 H5H       0.081700
     52 H021        10.1200     3.1970    -2.4120 hn         1 H5H       0.440800
     53 H141         2.2570     2.9980     2.2280 ho         1 H5H       0.413000
     54 H171        -2.4440     3.0340     3.2820 ho         1 H5H       0.408000
     55 H291         1.9680    -1.0340    -1.6030 ho         1 H5H       0.424000
     56 F05         10.3480     1.3520     0.7930 f          1 H5H      -0.117900
     57 H221        -2.7470     0.0330    -3.6250 ha         1 H5H       0.139000
@<TRIPOS>BOND
     1    18    19 ar
     2    18    16 ar
     3    17    16 1
     4    19     3 ar
     5    16     7 ar
     6    33    20 1
     7    28    29 2
     8    28    27 1
     9     3     2 ar
    10     3    34 1
    11     7     2 ar
    12    23    13 1
    13    29    15 1
    14    34     1 1
    15     1    20 1
    16     1    32 1
    17     5    27 1
    18     5    20 1
    19     5     6 1
    20    27     9 1
    21    56    12 1
    22    13    12 ar
    23    13    14 ar
    24    15     9 2
    25    15    14 1
    26     8     6 1
    27     8    32 1
    28     8     4 1
    29     6    30 1
    30    12    11 ar
    31    14    21 ar
    32    31     4 1
    33    11    26 1
    34    11    22 ar
    35    21    22 ar
    36    21    24 1
    37    26    10 1
    38    22    25 1
    39     1    35 1
    40     2    57 1
    41     4    36 1
    42     4    37 1
    43     5    38 1
    44     6    39 1
    45     7    40 1
    46     8    41 1
    47     9    42 1
    48    10    43 1
    49    10    44 1
    50    10    45 1
    51    17    46 1
    52    17    47 1
    53    17    48 1
    54    18    49 1
    55    19    50 1
    56    20    51 1
    57    26    52 1
    58    30    53 1
    59    31    54 1
    60    33    55 1
@<TRIPOS>SUBSTRUCTURE
     1 H5H         1 TEMP              0 ****  ****    0 ROOT
