@<TRIPOS>MOLECULE
H5K
   35    37     1     0     0
SMALL
bcc


@<TRIPOS>ATOM
      1 N5          -1.2680     0.0000    -2.2330 n1         1 H5K      -0.382800
      2 C13         -0.7170     0.0000    -1.2400 cg         1 H5K       0.139800
      3 C11          0.0000     0.0000     0.0000 ca         1 H5K       0.315000
      4 N3           1.3330     0.0000     0.0000 nb         1 H5K      -0.489000
      5 C10          1.9900     0.0000     1.1400 ca         1 H5K       0.216900
      6 C12         -0.6960     0.0060     1.2100 ca         1 H5K       0.364900
      7 N4          -0.0340     0.0060     2.3510 nb         1 H5K      -0.523000
      8 C9           1.2930    -0.0010     2.3500 ca         1 H5K       0.291900
      9 N2           1.9900    -0.0010     3.5520 ns         1 H5K      -0.121400
     10 C8           1.3210     0.1020     4.7190 c          1 H5K       0.526100
     11 O3           0.1060     0.1010     4.7240 o          1 H5K      -0.615100
     12 N1           2.0000     0.2040     5.8770 ns         1 H5K      -0.028100
     13 C7           1.3110     0.2150     7.0920 ca         1 H5K      -0.119400
     14 C6           1.8730    -0.3820     8.2020 ca         1 H5K      -0.123000
     15 C14          0.0590     0.8370     7.1720 ca         1 H5K      -0.129000
     16 C15         -0.6330     0.8620     8.3410 ca         1 H5K      -0.064000
     17 C16         -0.0920     0.2580     9.4920 ca         1 H5K      -0.049000
     18 C5           1.1790    -0.3700     9.4200 ca         1 H5K      -0.016000
     19 C4           1.7250    -0.9710    10.5700 ca         1 H5K      -0.179000
     20 C3           1.0380    -0.9500    11.7400 ca         1 H5K      -0.024000
     21 C17         -0.7870     0.2710    10.7090 ca         1 H5K      -0.083000
     22 C2          -0.2240    -0.3310    11.8240 ca         1 H5K      -0.087600
     23 C1          -0.9510    -0.3210    13.1060 c          1 H5K       0.968200
     24 O2          -2.0400     0.2120    13.1850 o          1 H5K      -0.881300
     25 O1          -0.4070    -0.9040    14.1940 o          1 H5K      -0.881300
     26 H7           3.0730    -0.0030     1.1400 h4         1 H5K      -0.008900
     27 H8          -1.7790    -0.0290     1.2120 h4         1 H5K      -0.001900
     28 H6           2.9760    -0.1750     3.5590 hn         1 H5K       0.164500
     29 H5           3.0000     0.2370     5.8700 hn         1 H5K       0.149500
     30 H4           2.8440    -0.8570     8.1270 ha         1 H5K       0.095000
     31 H9          -0.3500     1.3450     6.3070 ha         1 H5K       0.131000
     32 H10         -1.5960     1.3560     8.3900 ha         1 H5K       0.104000
     33 H3           2.6780    -1.4800    10.6480 ha         1 H5K       0.094000
     34 H2           1.5780    -1.4520    12.5330 ha         1 H5K       0.116000
     35 H11         -1.7680     0.7260    10.7690 ha         1 H5K       0.129000
@<TRIPOS>BOND
     1     1     2 3   
     2     2     3 1   
     3     3     4 ar  
     4     3     6 ar  
     5     4     5 ar  
     6     5     8 ar  
     7     5    26 1   
     8     6     7 ar  
     9     6    27 1   
    10     7     8 ar  
    11     8     9 1   
    12     9    10 1   
    13     9    28 1   
    14    10    11 2   
    15    10    12 1   
    16    12    13 1   
    17    12    29 1   
    18    13    14 ar  
    19    13    15 ar  
    20    14    18 ar  
    21    14    30 1   
    22    15    16 ar  
    23    15    31 1   
    24    16    17 ar  
    25    16    32 1   
    26    17    18 ar  
    27    17    21 ar  
    28    18    19 ar  
    29    19    20 ar  
    30    19    33 1   
    31    20    22 ar  
    32    20    34 1   
    33    21    22 ar  
    34    21    35 1   
    35    22    23 1   
    36    23    24 1   
    37    23    25 1   
@<TRIPOS>SUBSTRUCTURE
     1 H5K         1 TEMP              0 ****  ****    0 ROOT
