@<TRIPOS>MOLECULE
molecule
   35    37     1     0     0
SMALL
bcc


@<TRIPOS>ATOM
      1 N5          -1.2680     0.0000    -2.2330 n1         1 H5K      -0.356800
      2 C13         -0.7170     0.0000    -1.2400 cg         1 H5K       0.154800
      3 C11          0.0000     0.0000     0.0000 ca         1 H5K       0.316000
      4 N3           1.3330     0.0000     0.0000 nb         1 H5K      -0.599000
      5 C10          1.9900     0.0000     1.1400 ca         1 H5K       0.243900
      6 C12         -0.6960     0.0060     1.2100 ca         1 H5K       0.384900
      7 N4          -0.0340     0.0060     2.3510 nb         1 H5K      -0.640000
      8 C9           1.2930    -0.0010     2.3500 ca         1 H5K       0.479900
      9 N2           1.9900    -0.0010     3.5520 ns         1 H5K      -0.557400
     10 C8           1.3210     0.1020     4.7190 c          1 H5K       0.761100
     11 O3           0.1060     0.1010     4.7240 o          1 H5K      -0.566100
     12 N1           2.0000     0.2040     5.8770 ns         1 H5K      -0.478100
     13 C7           1.3110     0.2150     7.0920 ca         1 H5K       0.034600
     14 C6           1.8730    -0.3820     8.2020 ca         1 H5K      -0.154000
     15 C14          0.0590     0.8370     7.1720 ca         1 H5K      -0.146000
     16 C15         -0.6330     0.8620     8.3410 ca         1 H5K      -0.096000
     17 C16         -0.0920     0.2580     9.4920 ca         1 H5K      -0.052000
     18 C5           1.1790    -0.3700     9.4200 ca         1 H5K      -0.019000
     19 C4           1.7250    -0.9710    10.5700 ca         1 H5K      -0.190000
     20 C3           1.0380    -0.9500    11.7400 ca         1 H5K      -0.058000
     21 C17         -0.7870     0.2710    10.7090 ca         1 H5K      -0.107000
     22 C2          -0.2240    -0.3310    11.8240 ca         1 H5K      -0.089600
     23 C1          -0.9510    -0.3210    13.1060 c          1 H5K       0.878200
     24 O2          -2.0400     0.2120    13.1850 o          1 H5K      -0.833300
     25 O1          -0.4070    -0.9040    14.1940 o          1 H5K      -0.833300
     26 H7           3.0730    -0.0030     1.1400 h4         1 H5K       0.031100
     27 H8          -1.7790    -0.0290     1.2120 h4         1 H5K       0.047100
     28 H6           2.9760    -0.1750     3.5590 hn         1 H5K       0.325500
     29 H5           3.0000     0.2370     5.8700 hn         1 H5K       0.308500
     30 H4           2.8440    -0.8570     8.1270 ha         1 H5K       0.116000
     31 H9          -0.3500     1.3450     6.3070 ha         1 H5K       0.148000
     32 H10         -1.5960     1.3560     8.3900 ha         1 H5K       0.133000
     33 H3           2.6780    -1.4800    10.6480 ha         1 H5K       0.113000
     34 H2           1.5780    -1.4520    12.5330 ha         1 H5K       0.145000
     35 H11         -1.7680     0.7260    10.7690 ha         1 H5K       0.155000
@<TRIPOS>BOND
     1    19    20 ar
     2    19    18 ar
     3    20    22 ar
     4    24    23 1
     5    11    10 2
     6    22    23 1
     7    22    21 ar
     8    14    18 ar
     9    14    13 ar
    10    18    17 ar
    11    23    25 1
    12    10     9 1
    13    10    12 1
    14     9     8 1
    15    21    17 ar
    16    13    12 1
    17    13    15 ar
    18    17    16 ar
    19     8     5 ar
    20     8     7 ar
    21    15    16 ar
    22     5     4 ar
    23     7     6 ar
    24     4     3 ar
    25     6     3 ar
    26     3     2 1
    27     2     1 3
    28     5    26 1
    29     6    27 1
    30     9    28 1
    31    12    29 1
    32    14    30 1
    33    15    31 1
    34    16    32 1
    35    19    33 1
    36    20    34 1
    37    21    35 1
@<TRIPOS>SUBSTRUCTURE
     1 H5K         1 TEMP              0 ****  ****    0 ROOT
