@<TRIPOS>MOLECULE
molecule
   28    29     1     0     0
SMALL
bcc


@<TRIPOS>ATOM
      1 C2           0.0000     0.0000     0.0000 c          1 H5P       0.714500
      2 O2          -0.7360     0.0000    -0.9630 o          1 H5P      -0.541500
      3 N3           1.3510     0.0000     0.0000 ns         1 H5P      -0.596500
      4 C4           1.8440     0.0000     1.2450 c          1 H5P       0.825500
      5 O4           3.0310    -0.0010     1.5030 o          1 H5P      -0.692500
      6 N5           0.8730    -0.0020     2.1810 ns         1 H5P      -0.577900
      7 C1'         -0.3950    -0.0010     1.4520 c3         1 H5P       0.198200
      8 C2'         -1.2430    -1.2320     1.7990 c3         1 H5P       0.095100
      9 O2'         -1.0620    -2.2600     0.8230 oh         1 H5P      -0.577800
     10 C3'         -2.6950    -0.7000     1.7640 c3         1 H5P       0.095100
     11 O3'         -3.4600    -1.3940     0.7770 oh         1 H5P      -0.572800
     12 C4'         -2.5430     0.7900     1.3850 c3         1 H5P       0.117100
     13 O4'         -1.1960     1.1400     1.7810 os         1 H5P      -0.337600
     14 C5'         -3.5600     1.6450     2.1410 c3         1 H5P       0.167400
     15 O5'         -3.3550     3.0220     1.8240 os         1 H5P      -0.522200
     16 P           -4.4530     3.8600     2.6520 p5         1 H5P       1.148900
     17 O1P         -4.2670     3.6210     4.0990 o          1 H5P      -0.907167
     18 O2P         -4.2780     5.4300     2.3400 o          1 H5P      -0.907167
     19 O3P         -5.9280     3.3880     2.2150 o          1 H5P      -0.907167
     20 HN3          1.9130     0.0000    -0.8280 hn         1 H5P       0.343500
     21 HN5          0.9950    -0.0030     3.1750 hn         1 H5P       0.367500
     22 H2'         -0.9970    -1.5920     2.7900 h1         1 H5P       0.040700
     23 HO2'        -0.9780    -3.0930     1.2560 ho         1 H5P       0.388000
     24 H3'         -3.1530    -0.7940     2.7410 h1         1 H5P       0.056700
     25 HO3'        -4.1660    -1.8570     1.1950 ho         1 H5P       0.389000
     26 H4'         -2.6610     0.9160     0.3150 h1         1 H5P       0.090700
     27 H5'1        -4.5630     1.3540     1.8530 h1         1 H5P       0.051700
     28 H5'2        -3.4340     1.4970     3.2070 h1         1 H5P       0.051700
@<TRIPOS>BOND
     1     1     2 2
     2     1     3 1
     3     1     7 1
     4     3     4 1
     5     3    20 1
     6     4     5 2
     7     4     6 1
     8     6     7 1
     9     6    21 1
    10     7     8 1
    11     7    13 1
    12     8     9 1
    13     8    10 1
    14     8    22 1
    15     9    23 1
    16    10    11 1
    17    10    12 1
    18    10    24 1
    19    11    25 1
    20    12    13 1
    21    12    14 1
    22    12    26 1
    23    14    15 1
    24    14    27 1
    25    14    28 1
    26    15    16 1
    27    16    17 1
    28    16    18 1
    29    16    19 1
@<TRIPOS>SUBSTRUCTURE
     1 H5P         1 TEMP              0 ****  ****    0 ROOT
