@<TRIPOS>MOLECULE
H5Q
   54    57     1     0     0
SMALL
bcc


@<TRIPOS>ATOM
      1 C10          0.0000     0.0000     0.0000 c3         1 H5Q       0.226400
      2 C17          3.6450    -0.2080     5.6580 cc         1 H5Q       0.342800
      3 C21          3.8430     1.0370     9.4080 ca         1 H5Q      -0.009600
      4 C02          3.9480     0.5490    -5.2100 ca         1 H5Q      -0.087300
      5 C03          4.8960     1.4800    -4.8260 ca         1 H5Q      -0.090000
      6 C04          5.1710     1.6740    -3.4870 ca         1 H5Q      -0.085500
      7 C05          4.4950     0.9330    -2.5250 ca         1 H5Q       0.055900
      8 C07          3.7300     0.0000     0.0000 c3         1 H5Q       0.246200
      9 C09          1.4080    -0.4920     0.3420 c3         1 H5Q       0.148100
     10 C12          1.5860    -0.5130     1.8620 c3         1 H5Q       0.144100
     11 C14          3.0160    -0.9500     2.1950 c3         1 H5Q      -0.070000
     12 C16          3.5670     0.1970     4.3570 cd         1 H5Q      -0.424600
     13 C18          3.7480     0.7410     7.0230 ca         1 H5Q      -0.176500
     14 C19          3.5840     0.2340     8.3130 ca         1 H5Q       0.162900
     15 C23          4.2620     2.3500     9.2260 ca         1 H5Q       0.042600
     16 C25          4.4260     2.8580     7.9410 ca         1 H5Q      -0.009600
     17 C27          4.1730     2.0570     6.8420 ca         1 H5Q       0.162900
     18 C31          4.0020     0.0000     1.5070 c3         1 H5Q       0.165100
     19 C33          3.5450    -0.0030    -2.9160 ca         1 H5Q      -0.085500
     20 C34          3.2690    -0.1870    -4.2560 ca         1 H5Q      -0.090000
     21 F20          3.1730    -1.0410     8.4900 f          1 H5Q      -0.104400
     22 F26          4.8320     4.1340     7.7670 f          1 H5Q      -0.110400
     23 F28          4.4780     2.5060     5.6050 f          1 H5Q      -0.104400
     24 N15          3.2190    -0.8990     3.6460 na         1 H5Q       0.609400
     25 N24          4.5180     3.1630    10.3360 nv         1 H5Q      -0.405200
     26 N29          3.3360    -1.5170     5.6630 nc         1 H5Q      -0.298000
     27 N30          3.0970    -1.8900     4.4560 nd         1 H5Q      -0.378800
     28 O08          2.3750     0.3860    -0.2380 os         1 H5Q      -0.356600
     29 O11         -0.2060    -0.0900    -1.4110 oh         1 H5Q      -0.580800
     30 O13          1.3520     0.7950     2.3880 oh         1 H5Q      -0.573800
     31 O32          5.3390    -0.4410     1.7500 oh         1 H5Q      -0.577800
     32 S06          4.8450     1.1760    -0.8160 ss         1 H5Q      -0.309000
     33 H102        -0.1090     1.0300     0.3160 h1         1 H5Q      -0.000800
     34 H101        -0.7310    -0.6140     0.5120 h1         1 H5Q      -0.000800
     35 H012         4.5740     0.3680    -7.2380 hc         1 H5Q       0.008033
     36 H013         3.1720    -0.6220    -6.8110 hc         1 H5Q       0.008033
     37 H011         2.9890     1.1250    -7.0230 hc         1 H5Q       0.008033
     38 H041         5.9130     2.4040    -3.1860 ha         1 H5Q       0.119500
     39 H071         3.8950    -0.9950    -0.3950 h2         1 H5Q       0.047700
     40 H091         1.5500    -1.4920    -0.0500 h1         1 H5Q       0.027700
     41 H121         0.8850    -1.2140     2.2980 h1         1 H5Q       0.027700
     42 H141         3.1780    -1.9590     1.8360 h1         1 H5Q       0.078700
     43 H161         3.3270     1.1970     4.0150 h4         1 H5Q       0.180000
     44 H311         3.8700     1.0020     1.8970 h1         1 H5Q       0.054700
     45 H331         3.0140    -0.5810    -2.1700 ha         1 H5Q       0.119500
     46 H341         2.5280    -0.9160    -4.5610 ha         1 H5Q       0.108500
     47 H241         4.8170     4.1090    10.2060 hn         1 H5Q       0.281300
     48 H242         4.4010     2.7980    11.2610 hn         1 H5Q       0.281300
     49 H111        -1.1070     0.1030    -1.6100 ho         1 H5Q       0.394000
     50 H131         0.5390     0.8010     2.8660 ho         1 H5Q       0.401000
     51 H321         5.9360     0.2770     1.6190 ho         1 H5Q       0.419000
     52 F22          3.6850     0.5460    10.6570 f          1 H5Q      -0.110400
     53 H031         5.4220     2.0580    -5.5760 ha         1 H5Q       0.108500
     54 C01          3.6500     0.3410    -6.6730 c3         1 H5Q       0.063200
@<TRIPOS>BOND
     1     1     9 1   
     2     1    29 1   
     3     1    33 1   
     4     1    34 1   
     5     2    12 2   
     6     2    13 1   
     7     2    26 1   
     8     3    14 ar  
     9     3    15 ar  
    10     3    52 1   
    11     4     5 ar  
    12     4    20 ar  
    13     4    54 1   
    14     5     6 ar  
    15     5    53 1   
    16     6     7 ar  
    17     6    38 1   
    18     7    19 ar  
    19     7    32 1   
    20     8    18 1   
    21     8    28 1   
    22     8    32 1   
    23     8    39 1   
    24     9    10 1   
    25     9    28 1   
    26     9    40 1   
    27    10    11 1   
    28    10    30 1   
    29    10    41 1   
    30    11    18 1   
    31    11    24 1   
    32    11    42 1   
    33    12    24 1   
    34    12    43 1   
    35    13    14 ar  
    36    13    17 ar  
    37    14    21 1   
    38    15    16 ar  
    39    15    25 1   
    40    16    17 ar  
    41    16    22 1   
    42    17    23 1   
    43    18    31 1   
    44    18    44 1   
    45    19    20 ar  
    46    19    45 1   
    47    20    46 1   
    48    24    27 1   
    49    25    47 1   
    50    25    48 1   
    51    26    27 2   
    52    29    49 1   
    53    30    50 1   
    54    31    51 1   
    55    35    54 1   
    56    36    54 1   
    57    37    54 1   
@<TRIPOS>SUBSTRUCTURE
     1 H5Q         1 TEMP              0 ****  ****    0 ROOT
