@<TRIPOS>MOLECULE
molecule
   69    73     1     0     0
SMALL
bcc


@<TRIPOS>ATOM
      1 C1           0.0000     0.0000     0.0000 c3         1 H5S       0.115900
      2 C3           0.7110    -0.0010     2.1620 c          1 H5S       0.717700
      3 C4           1.8990     0.0000     1.3050 ce         1 H5S      -0.296800
      4 C5           1.5110     0.0000     0.0000 c2         1 H5S       0.140900
      5 C7          -2.3130    -1.4110     1.9170 ca         1 H5S      -0.134300
      6 C8          -2.1510    -2.2070     3.0350 ca         1 H5S      -0.082000
      7 C9          -2.6390    -3.5010     3.0400 ca         1 H5S      -0.120300
      8 C10         -3.2920    -3.9980     1.9260 ca         1 H5S       0.137900
      9 O13          2.3150     0.0000    -1.0780 oh         1 H5S      -0.478100
     10 N2          -0.4040    -0.0010     1.4100 n          1 H5S      -0.478800
     11 C11         -3.4540    -3.1990     0.8060 ca         1 H5S      -0.167000
     12 C12         -2.9700    -1.9050     0.8050 ca         1 H5S      -0.106000
     13 O14          0.7310    -0.0020     3.3790 o          1 H5S      -0.615500
     14 C15          3.2960     0.0000     1.7810 ce         1 H5S       0.657200
     15 S16          5.5140     0.6780     2.3390 sy         1 H5S       1.351700
     16 N17          4.0160     1.0770     1.7110 nf         1 H5S      -0.600300
     17 C18          5.2210    -1.0210     2.7420 ca         1 H5S      -0.248500
     18 C19          3.8950    -1.2200     2.3480 ca         1 H5S      -0.195900
     19 C20          3.3500    -2.4990     2.5400 ca         1 H5S      -0.056000
     20 C21          4.1140    -3.4940     3.1020 ca         1 H5S      -0.106000
     21 O22          6.4510     0.7150     1.2710 o          1 H5S      -0.600300
     22 O23          5.6690     1.3850     3.5620 o          1 H5S      -0.600300
     23 C24         -0.5280     1.2550    -0.6990 c3         1 H5S      -0.070000
     24 C25          0.0930     1.3610    -2.0920 c3         1 H5S      -0.088767
     25 C26         -2.0490     1.1670    -0.8240 c3         1 H5S      -0.088767
     26 C27         -0.1540     2.4900     0.1220 c3         1 H5S      -0.088767
     27 F28         -3.7690    -5.2620     1.9290 f          1 H5S      -0.137900
     28 C29         -2.4610    -4.3690     4.2600 c3         1 H5S      -0.045800
     29 C30          5.9840    -2.0160     3.2970 ca         1 H5S       0.036700
     30 C31          5.4300    -3.2670     3.4910 ca         1 H5S      -0.041300
     31 C32          6.1820    -4.4070     4.1250 c3         1 H5S      -0.052100
     32 C33          7.6900    -4.1760     4.0430 c3         1 H5S       0.236800
     33 N34          7.9620    -2.7970     4.4800 n3         1 H5S      -0.820500
     34 C35          7.4150    -1.7090     3.6630 c3         1 H5S       0.263100
     35 S36          8.8520    -2.4870     5.8420 s6         1 H5S       1.329900
     36 O37          8.3980    -1.2120     6.2740 o          1 H5S      -0.620300
     37 O38          8.6710    -3.6410     6.6490 o          1 H5S      -0.620300
     38 C39         10.5640    -2.3860     5.2510 c3         1 H5S      -0.248300
     39 H1          -0.3710    -0.8910    -0.4920 h1         1 H5S       0.075700
     40 H6          -2.3990     0.6160     1.2720 h1         1 H5S       0.078200
     41 H6A         -1.7980     0.3940     2.9210 h1         1 H5S       0.078200
     42 H8          -1.6400    -1.8180     3.9070 ha         1 H5S       0.155000
     43 HO13         2.4710    -0.8880    -1.3540 ho         1 H5S       0.436000
     44 H11         -3.9670    -3.5860    -0.0670 ha         1 H5S       0.146000
     45 H12         -3.0970    -1.2800    -0.0710 ha         1 H5S       0.135000
     46 H20          2.3350    -2.7080     2.2250 ha         1 H5S       0.141000
     47 H21          3.6820    -4.4770     3.2430 ha         1 H5S       0.141000
     48 H25          0.1250     0.3800    -2.5500 hc         1 H5S       0.044367
     49 H25A         1.1000     1.7540    -2.0100 hc         1 H5S       0.044367
     50 H25B        -0.5040     2.0260    -2.7040 hc         1 H5S       0.044367
     51 H26         -2.3690     1.6860    -1.7190 hc         1 H5S       0.044367
     52 H26A        -2.3480     0.1270    -0.8840 hc         1 H5S       0.044367
     53 H26B        -2.5100     1.6250     0.0430 hc         1 H5S       0.044367
     54 H27          0.9240     2.5610     0.1980 hc         1 H5S       0.044367
     55 H27A        -0.5400     3.3780    -0.3650 hc         1 H5S       0.044367
     56 H27B        -0.5810     2.4080     1.1140 hc         1 H5S       0.044367
     57 H29         -1.6970    -5.1110     4.0660 hc         1 H5S       0.050033
     58 H29A        -3.3960    -4.8640     4.4900 hc         1 H5S       0.050033
     59 H29B        -2.1620    -3.7540     5.1000 hc         1 H5S       0.050033
     60 H32          5.9350    -5.3260     3.6080 hc         1 H5S       0.069200
     61 H32A         5.8920    -4.4880     5.1650 hc         1 H5S       0.069200
     62 H33          8.0240    -4.3070     3.0200 h1         1 H5S       0.060200
     63 H33A         8.2030    -4.8740     4.6940 h1         1 H5S       0.060200
     64 H35          7.4500    -0.7850     4.2270 h1         1 H5S       0.081700
     65 H35A         8.0030    -1.6090     2.7590 h1         1 H5S       0.081700
     66 H39         10.8850    -3.3620     4.9070 h1         1 H5S       0.098033
     67 H39A        11.2060    -2.0590     6.0600 h1         1 H5S       0.098033
     68 H39B        10.6230    -1.6770     4.4340 h1         1 H5S       0.098033
     69 C6          -1.7810    -0.0020     1.9130 c3         1 H5S       0.170300
@<TRIPOS>BOND
     1     1     4 1
     2     1    10 1
     3     1    23 1
     4     2     3 1
     5     2    10 1
     6     2    13 2
     7     3     4 2
     8     3    14 1
     9     4     9 1
    10    69     5 1
    11    69    10 1
    12     5     6 ar
    13     5    12 ar
    14     6     7 ar
    15     7     8 ar
    16     7    28 1
    17     8    11 ar
    18     8    27 1
    19    11    12 ar
    20    14    16 2
    21    14    18 1
    22    15    16 1
    23    15    17 1
    24    15    21 2
    25    15    22 2
    26    17    18 ar
    27    17    29 ar
    28    18    19 ar
    29    19    20 ar
    30    20    30 ar
    31    23    24 1
    32    23    25 1
    33    23    26 1
    34    29    30 ar
    35    29    34 1
    36    30    31 1
    37    31    32 1
    38    32    33 1
    39    33    34 1
    40    33    35 1
    41    35    36 2
    42    35    37 2
    43    35    38 1
    44     1    39 1
    45    69    40 1
    46    69    41 1
    47     6    42 1
    48     9    43 1
    49    11    44 1
    50    12    45 1
    51    19    46 1
    52    20    47 1
    53    24    48 1
    54    24    49 1
    55    24    50 1
    56    25    51 1
    57    25    52 1
    58    25    53 1
    59    26    54 1
    60    26    55 1
    61    26    56 1
    62    28    57 1
    63    28    58 1
    64    28    59 1
    65    31    60 1
    66    31    61 1
    67    32    62 1
    68    32    63 1
    69    34    64 1
    70    34    65 1
    71    38    66 1
    72    38    67 1
    73    38    68 1
@<TRIPOS>SUBSTRUCTURE
     1 H5S         1 TEMP              0 ****  ****    0 ROOT
