@<TRIPOS>MOLECULE
H5S
   69    73     1     0     0
SMALL
bcc


@<TRIPOS>ATOM
      1 C1           0.0000     0.0000     0.0000 c3         1 H5S       0.037900
      2 C3           0.7110    -0.0010     2.1620 c          1 H5S       0.655700
      3 C4           1.8990     0.0000     1.3050 ce         1 H5S      -0.332800
      4 C5           1.5110     0.0000     0.0000 c2         1 H5S       0.150900
      5 C7          -2.3130    -1.4110     1.9170 ca         1 H5S      -0.139300
      6 C8          -2.1510    -2.2070     3.0350 ca         1 H5S      -0.054000
      7 C9          -2.6390    -3.5010     3.0400 ca         1 H5S      -0.117300
      8 C10         -3.2920    -3.9980     1.9260 ca         1 H5S       0.109900
      9 O13          2.3150     0.0000    -1.0780 oh         1 H5S      -0.455100
     10 N2          -0.4040    -0.0010     1.4100 n          1 H5S      -0.142800
     11 C11         -3.4540    -3.1990     0.8060 ca         1 H5S      -0.130000
     12 C12         -2.9700    -1.9050     0.8050 ca         1 H5S      -0.088000
     13 O14          0.7310    -0.0020     3.3790 o          1 H5S      -0.662500
     14 C15          3.2960     0.0000     1.7810 ce         1 H5S       0.673200
     15 S16          5.5140     0.6780     2.3390 sy         1 H5S       1.071700
     16 N17          4.0160     1.0770     1.7110 nf         1 H5S      -0.482300
     17 C18          5.2210    -1.0210     2.7420 ca         1 H5S      -0.114500
     18 C19          3.8950    -1.2200     2.3480 ca         1 H5S      -0.186900
     19 C20          3.3500    -2.4990     2.5400 ca         1 H5S      -0.038000
     20 C21          4.1140    -3.4940     3.1020 ca         1 H5S      -0.080000
     21 O22          6.4510     0.7150     1.2710 o          1 H5S      -0.566300
     22 O23          5.6690     1.3850     3.5620 o          1 H5S      -0.566300
     23 C24         -0.5280     1.2550    -0.6990 c3         1 H5S      -0.068000
     24 C25          0.0930     1.3610    -2.0920 c3         1 H5S      -0.010433
     25 C26         -2.0490     1.1670    -0.8240 c3         1 H5S      -0.010433
     26 C27         -0.1540     2.4900     0.1220 c3         1 H5S      -0.010433
     27 F28         -3.7690    -5.2620     1.9290 f          1 H5S      -0.126900
     28 C29         -2.4610    -4.3690     4.2600 c3         1 H5S       0.066200
     29 C30          5.9840    -2.0160     3.2970 ca         1 H5S       0.037700
     30 C31          5.4300    -3.2670     3.4910 ca         1 H5S      -0.056300
     31 C32          6.1820    -4.4070     4.1250 c3         1 H5S       0.013900
     32 C33          7.6900    -4.1760     4.0430 c3         1 H5S       0.239800
     33 N34          7.9620    -2.7970     4.4800 n3         1 H5S      -0.554500
     34 C35          7.4150    -1.7090     3.6630 c3         1 H5S       0.271100
     35 S36          8.8520    -2.4870     5.8420 s6         1 H5S       0.971900
     36 O37          8.3980    -1.2120     6.2740 o          1 H5S      -0.578800
     37 O38          8.6710    -3.6410     6.6490 o          1 H5S      -0.578800
     38 C39         10.5640    -2.3860     5.2510 c3         1 H5S       0.013700
     39 H1          -0.3710    -0.8910    -0.4920 h1         1 H5S       0.046700
     40 H6          -2.3990     0.6160     1.2720 h1         1 H5S       0.051200
     41 H6A         -1.7980     0.3940     2.9210 h1         1 H5S       0.051200
     42 H8          -1.6400    -1.8180     3.9070 ha         1 H5S       0.130000
     43 HO13         2.4710    -0.8880    -1.3540 ho         1 H5S       0.412000
     44 H11         -3.9670    -3.5860    -0.0670 ha         1 H5S       0.119000
     45 H12         -3.0970    -1.2800    -0.0710 ha         1 H5S       0.114000
     46 H20          2.3350    -2.7080     2.2250 ha         1 H5S       0.107000
     47 H21          3.6820    -4.4770     3.2430 ha         1 H5S       0.110000
     48 H25          0.1250     0.3800    -2.5500 hc         1 H5S       0.016589
     49 H25A         1.1000     1.7540    -2.0100 hc         1 H5S       0.016589
     50 H25B        -0.5040     2.0260    -2.7040 hc         1 H5S       0.016589
     51 H26         -2.3690     1.6860    -1.7190 hc         1 H5S       0.016589
     52 H26A        -2.3480     0.1270    -0.8840 hc         1 H5S       0.016589
     53 H26B        -2.5100     1.6250     0.0430 hc         1 H5S       0.016589
     54 H27          0.9240     2.5610     0.1980 hc         1 H5S       0.016589
     55 H27A        -0.5400     3.3780    -0.3650 hc         1 H5S       0.016589
     56 H27B        -0.5810     2.4080     1.1140 hc         1 H5S       0.016589
     57 H29         -1.6970    -5.1110     4.0660 hc         1 H5S       0.014367
     58 H29A        -3.3960    -4.8640     4.4900 hc         1 H5S       0.014367
     59 H29B        -2.1620    -3.7540     5.1000 hc         1 H5S       0.014367
     60 H32          5.9350    -5.3260     3.6080 hc         1 H5S       0.033700
     61 H32A         5.8920    -4.4880     5.1650 hc         1 H5S       0.033700
     62 H33          8.0240    -4.3070     3.0200 h1         1 H5S       0.023700
     63 H33A         8.2030    -4.8740     4.6940 h1         1 H5S       0.023700
     64 H35          7.4500    -0.7850     4.2270 h1         1 H5S       0.047200
     65 H35A         8.0030    -1.6090     2.7590 h1         1 H5S       0.047200
     66 H39         10.8850    -3.3620     4.9070 h1         1 H5S       0.062033
     67 H39A        11.2060    -2.0590     6.0600 h1         1 H5S       0.062033
     68 H39B        10.6230    -1.6770     4.4340 h1         1 H5S       0.062033
     69 C6          -1.7810    -0.0020     1.9130 c3         1 H5S       0.109300
@<TRIPOS>BOND
     1     1     4 1   
     2     1    10 1   
     3     1    23 1   
     4     1    39 1   
     5     2     3 1   
     6     2    10 1   
     7     2    13 2   
     8     3     4 2   
     9     3    14 1   
    10     4     9 1   
    11     5     6 ar  
    12     5    12 ar  
    13     5    69 1   
    14     6     7 ar  
    15     6    42 1   
    16     7     8 ar  
    17     7    28 1   
    18     8    11 ar  
    19     8    27 1   
    20     9    43 1   
    21    10    69 1   
    22    11    12 ar  
    23    11    44 1   
    24    12    45 1   
    25    14    16 2   
    26    14    18 1   
    27    15    16 1   
    28    15    17 1   
    29    15    21 2   
    30    15    22 2   
    31    17    18 ar  
    32    17    29 ar  
    33    18    19 ar  
    34    19    20 ar  
    35    19    46 1   
    36    20    30 ar  
    37    20    47 1   
    38    23    24 1   
    39    23    25 1   
    40    23    26 1   
    41    24    48 1   
    42    24    49 1   
    43    24    50 1   
    44    25    51 1   
    45    25    52 1   
    46    25    53 1   
    47    26    54 1   
    48    26    55 1   
    49    26    56 1   
    50    28    57 1   
    51    28    58 1   
    52    28    59 1   
    53    29    30 ar  
    54    29    34 1   
    55    30    31 1   
    56    31    32 1   
    57    31    60 1   
    58    31    61 1   
    59    32    33 1   
    60    32    62 1   
    61    32    63 1   
    62    33    34 1   
    63    33    35 1   
    64    34    64 1   
    65    34    65 1   
    66    35    36 2   
    67    35    37 2   
    68    35    38 1   
    69    38    66 1   
    70    38    67 1   
    71    38    68 1   
    72    40    69 1   
    73    41    69 1   
@<TRIPOS>SUBSTRUCTURE
     1 H5S         1 TEMP              0 ****  ****    0 ROOT
