@<TRIPOS>MOLECULE
molecule
   53    56     1     0     0
SMALL
bcc


@<TRIPOS>ATOM
      1 C10          0.0000     0.0000     0.0000 c3         1 H5T       0.151400
      2 C17          3.6430    -0.2060     5.6590 cc         1 H5T       0.323800
      3 C21          3.8420     1.0430     9.4070 ca         1 H5T       0.083900
      4 C02          3.9490     0.5460    -5.2110 ca         1 H5T      -0.083300
      5 C03          4.8960     1.4770    -4.8260 ca         1 H5T      -0.115000
      6 C04          5.1720     1.6720    -3.4870 ca         1 H5T      -0.112000
      7 C05          4.4960     0.9310    -2.5250 ca         1 H5T       0.030900
      8 C07          3.7300     0.0000     0.0000 c3         1 H5T       0.190200
      9 C09          1.4070    -0.4920     0.3420 c3         1 H5T       0.127100
     10 C12          1.5860    -0.5120     1.8630 c3         1 H5T       0.099100
     11 C14          3.0160    -0.9490     2.1960 c3         1 H5T       0.073000
     12 C16          3.5660     0.1990     4.3580 cd         1 H5T      -0.243600
     13 C18          3.7460     0.7440     7.0220 ca         1 H5T      -0.133500
     14 C19          3.5820     0.2380     8.3120 ca         1 H5T       0.131900
     15 C23          4.2580     2.3540     9.2240 ca         1 H5T       0.075100
     16 C25          4.4220     2.8610     7.9420 ca         1 H5T       0.083900
     17 C27          4.1710     2.0600     6.8420 ca         1 H5T       0.131900
     18 C31          4.0020     0.0000     1.5070 c3         1 H5T       0.122100
     19 C33          3.5450    -0.0040    -2.9160 ca         1 H5T      -0.112000
     20 C34          3.2690    -0.1900    -4.2560 ca         1 H5T      -0.115000
     21 F20          3.1720    -1.0370     8.4910 f          1 H5T      -0.102900
     22 F26          4.8290     4.1370     7.7670 f          1 H5T      -0.105900
     23 F28          4.4760     2.5080     5.6040 f          1 H5T      -0.102900
     24 N15          3.2190    -0.8980     3.6450 na         1 H5T       0.134400
     25 N29          3.3350    -1.5140     5.6640 nd         1 H5T      -0.340000
     26 N30          3.0960    -1.8880     4.4580 nc         1 H5T      -0.200800
     27 O08          2.3740     0.3850    -0.2380 os         1 H5T      -0.375600
     28 O11         -0.2070    -0.0910    -1.4110 oh         1 H5T      -0.596800
     29 O13          1.3520     0.7960     2.3880 oh         1 H5T      -0.591800
     30 O24          4.5070     3.1440    10.3030 oh         1 H5T      -0.486100
     31 O32          5.3390    -0.4410     1.7510 oh         1 H5T      -0.588800
     32 S06          4.8450     1.1750    -0.8160 ss         1 H5T      -0.211000
     33 H102        -0.1090     1.0310     0.3150 h1         1 H5T       0.038200
     34 H101        -0.7320    -0.6130     0.5120 h1         1 H5T       0.038200
     35 H012         4.5460     0.5150    -7.2550 hc         1 H5T       0.043700
     36 H011         3.3130    -0.6810    -6.8310 hc         1 H5T       0.043700
     37 H013         2.8740     1.0260    -6.9860 hc         1 H5T       0.043700
     38 H041         5.9140     2.4010    -3.1870 ha         1 H5T       0.139000
     39 H071         3.8950    -0.9950    -0.3950 h2         1 H5T       0.070700
     40 H091         1.5500    -1.4920    -0.0490 h1         1 H5T       0.056700
     41 H121         0.8840    -1.2130     2.2990 h1         1 H5T       0.062700
     42 H141         3.1770    -1.9590     1.8380 h1         1 H5T       0.109700
     43 H161         3.3290     1.1980     4.0150 h4         1 H5T       0.202000
     44 H311         3.8690     1.0020     1.8970 h1         1 H5T       0.081700
     45 H331         3.0140    -0.5820    -2.1680 ha         1 H5T       0.139000
     46 H341         2.5280    -0.9180    -4.5610 ha         1 H5T       0.134500
     47 H111        -1.1280    -0.0200    -1.5990 ho         1 H5T       0.407000
     48 H131         0.5450     0.7990     2.8750 ho         1 H5T       0.413000
     49 H241         5.4040     3.0360    10.5720 ho         1 H5T       0.433000
     50 H321         5.9290     0.2920     1.6820 ho         1 H5T       0.425000
     51 F22          3.6830     0.5530    10.6570 f          1 H5T      -0.105900
     52 H031         5.4220     2.0540    -5.5760 ha         1 H5T       0.134500
     53 C01          3.6490     0.3370    -6.6730 c3         1 H5T      -0.047800
@<TRIPOS>BOND
     1    53     4 1
     2     4    20 ar
     3     4     5 ar
     4    20    19 ar
     5     5     6 ar
     6    19     7 ar
     7    26    25 2
     8    26    24 1
     9    31    18 1
    10     6     7 ar
    11     7    32 1
    12    23    17 1
    13    25     2 1
    14    11    24 1
    15    11    18 1
    16    11    10 1
    17     8    32 1
    18     8    18 1
    19     8    27 1
    20    24    12 1
    21    22    16 1
    22    17    16 ar
    23    17    13 ar
    24     2    12 2
    25     2    13 1
    26     9    27 1
    27     9    10 1
    28     9     1 1
    29    16    15 ar
    30    10    29 1
    31    13    14 ar
    32    28     1 1
    33    15    30 1
    34    15     3 ar
    35    14     3 ar
    36    14    21 1
    37     3    51 1
    38     1    33 1
    39     1    34 1
    40    53    35 1
    41    53    36 1
    42    53    37 1
    43     5    52 1
    44     6    38 1
    45     8    39 1
    46     9    40 1
    47    10    41 1
    48    11    42 1
    49    12    43 1
    50    18    44 1
    51    19    45 1
    52    20    46 1
    53    28    47 1
    54    29    48 1
    55    30    49 1
    56    31    50 1
@<TRIPOS>SUBSTRUCTURE
     1 H5T         1 TEMP              0 ****  ****    0 ROOT
