@<TRIPOS>MOLECULE
molecule
   62    65     1     0     0
SMALL
bcc


@<TRIPOS>ATOM
      1 C1           0.0000     0.0000     0.0000 ce         1 H5U      -0.299800
      2 C2           1.3620     0.0000     0.0000 c2         1 H5U       0.142900
      3 C3           1.7920     0.0000     1.4490 c3         1 H5U       0.115900
      4 N4           0.5550     0.0010     2.2380 n          1 H5U      -0.478800
      5 C5          -0.4830     0.0010     1.3830 c          1 H5U       0.719700
      6 O6          -1.6550     0.0020     1.7110 o          1 H5U      -0.616500
      7 O7           2.1660    -0.0020    -1.0780 oh         1 H5U      -0.478100
      8 C8           0.4660     0.0020     3.7010 c3         1 H5U       0.172300
      9 C9           0.2740     1.4140     4.1910 ca         1 H5U      -0.141300
     10 C10          2.6120    -1.2550     1.7560 c3         1 H5U      -0.071000
     11 C11         -1.5480     2.5180    -1.0570 ca         1 H5U      -0.053000
     12 C12         -2.2790     3.5320    -1.6330 ca         1 H5U      -0.103000
     13 C13         -3.0200     3.3110    -2.7800 ca         1 H5U      -0.089000
     14 C14         -3.0270     2.0490    -3.3570 ca         1 H5U       0.021700
     15 C15         -1.5430     1.2360    -1.6260 ca         1 H5U      -0.196900
     16 C16         -2.3040     1.0410    -2.7860 ca         1 H5U      -0.244500
     17 S17         -2.0300    -0.6670    -3.1670 sy         1 H5U       1.354700
     18 N18         -1.0080    -1.0740    -1.9070 nf         1 H5U      -0.597300
     19 C19         -0.8540     0.0050    -1.2030 ce         1 H5U       0.657200
     20 O21         -1.2730    -0.7240    -4.3680 o          1 H5U      -0.603300
     21 C22          3.7680    -1.3650     0.7590 c3         1 H5U      -0.087767
     22 C23          3.1700    -1.1640     3.1770 c3         1 H5U      -0.087767
     23 C24          1.7170    -2.4900     1.6370 c3         1 H5U      -0.087767
     24 C25         -1.0010     1.9250     4.3440 ca         1 H5U      -0.085000
     25 C26         -1.1770     3.2200     4.7950 ca         1 H5U      -0.172000
     26 C27         -0.0760     4.0050     5.0930 ca         1 H5U       0.140900
     27 C28          1.2010     3.4920     4.9400 ca         1 H5U      -0.172000
     28 C29          1.3750     2.1950     4.4940 ca         1 H5U      -0.085000
     29 F30         -0.2470     5.2710     5.5330 f          1 H5U      -0.138900
     30 C31         -3.8300     1.7910    -4.6070 c3         1 H5U       0.267100
     31 N32         -5.0920     1.1360    -4.2500 n7         1 H5U      -0.914100
     32 S33         -6.3280     1.0660    -5.3490 s6         1 H5U       1.328900
     33 C34         -5.6830     0.0260    -6.6890 c3         1 H5U      -0.246300
     34 O35         -7.3730     0.3960    -4.6580 o          1 H5U      -0.628300
     35 O36         -6.4820     2.4070    -5.7890 o          1 H5U      -0.628300
     36 H3           2.3700     0.8910     1.6640 h1         1 H5U       0.074700
     37 HO7          2.3850     0.8850    -1.3090 ho         1 H5U       0.437000
     38 H8           1.3780    -0.4060     4.1190 h1         1 H5U       0.075700
     39 H8A         -0.3760    -0.6060     4.0110 h1         1 H5U       0.075700
     40 H11         -0.9740     2.7110    -0.1590 ha         1 H5U       0.143000
     41 H12         -2.2730     4.5180    -1.1830 ha         1 H5U       0.146000
     42 H13         -3.5910     4.1170    -3.2250 ha         1 H5U       0.154000
     43 H22          3.3990    -1.7580    -0.1800 hc         1 H5U       0.044033
     44 H22A         4.1990    -0.3840     0.5960 hc         1 H5U       0.044033
     45 H22B         4.5250    -2.0300     1.1570 hc         1 H5U       0.044033
     46 H23          3.2010    -0.1270     3.4870 hc         1 H5U       0.044033
     47 H23A         2.5340    -1.7240     3.8520 hc         1 H5U       0.044033
     48 H23B         4.1720    -1.5780     3.1990 hc         1 H5U       0.044033
     49 H24          2.2970    -3.3780     1.8570 hc         1 H5U       0.044033
     50 H24A         1.3240    -2.5550     0.6300 hc         1 H5U       0.044033
     51 H24B         0.8970    -2.4100     2.3400 hc         1 H5U       0.044033
     52 H25         -1.8620     1.3110     4.1110 ha         1 H5U       0.145500
     53 H26         -2.1760     3.6210     4.9150 ha         1 H5U       0.148500
     54 H28          2.0630     4.1050     5.1750 ha         1 H5U       0.148500
     55 H29          2.3740     1.7930     4.3740 ha         1 H5U       0.145500
     56 H31         -3.2660     1.1490    -5.2720 h1         1 H5U       0.060700
     57 H31A        -4.0390     2.7310    -5.1020 h1         1 H5U       0.060700
     58 HN32        -5.2210     0.7690    -3.3280 hn         1 H5U       0.472800
     59 H34         -4.9160     0.5680    -7.2290 h1         1 H5U       0.100033
     60 H34A        -6.4890    -0.2310    -7.3660 h1         1 H5U       0.100033
     61 H34B        -5.2590    -0.8790    -6.2710 h1         1 H5U       0.100033
     62 O20         -3.2570    -1.3540    -2.9630 o          1 H5U      -0.603300
@<TRIPOS>BOND
     1     1     2 2
     2     1     5 1
     3     1    19 1
     4     2     3 1
     5     2     7 1
     6     3     4 1
     7     3    10 1
     8     4     5 1
     9     4     8 1
    10     5     6 2
    11     8     9 1
    12     9    24 ar
    13     9    28 ar
    14    10    21 1
    15    10    22 1
    16    10    23 1
    17    11    12 ar
    18    11    15 ar
    19    12    13 ar
    20    13    14 ar
    21    14    16 ar
    22    14    30 1
    23    15    16 ar
    24    15    19 1
    25    16    17 1
    26    17    18 1
    27    17    62 2
    28    17    20 2
    29    18    19 2
    30    24    25 ar
    31    25    26 ar
    32    26    27 ar
    33    26    29 1
    34    27    28 ar
    35    30    31 1
    36    31    32 1
    37    32    33 1
    38    32    34 2
    39    32    35 2
    40     3    36 1
    41     7    37 1
    42     8    38 1
    43     8    39 1
    44    11    40 1
    45    12    41 1
    46    13    42 1
    47    21    43 1
    48    21    44 1
    49    21    45 1
    50    22    46 1
    51    22    47 1
    52    22    48 1
    53    23    49 1
    54    23    50 1
    55    23    51 1
    56    24    52 1
    57    25    53 1
    58    27    54 1
    59    28    55 1
    60    30    56 1
    61    30    57 1
    62    31    58 1
    63    33    59 1
    64    33    60 1
    65    33    61 1
@<TRIPOS>SUBSTRUCTURE
     1 H5U         1 TEMP              0 ****  ****    0 ROOT
