@<TRIPOS>MOLECULE
H5W
   52    56     1     0     0
SMALL
bcc


@<TRIPOS>ATOM
      1 F23          0.0000     0.0000     0.0000 f          1 H5W      -0.094000
      2 C23          1.3510     0.0000     0.0000 c2         1 H5W       0.114000
      3 C24          2.0430     0.0000     1.2010 c2         1 H5W      -0.191000
      4 C25          3.4260     0.0000     1.2080 c2         1 H5W      -0.029000
      5 C26          4.1260    -0.0010     0.0180 c2         1 H5W      -0.199000
      6 C22          2.0420    -0.0060    -1.1970 c2         1 H5W      -0.222000
      7 C21          3.4370    -0.0010    -1.1940 c3         1 H5W       0.095000
      8 C13          4.1810    -0.0020    -2.4710 c2         1 H5W      -0.056000
      9 C12          3.5240    -0.0020    -3.6220 c2         1 H5W      -0.115000
     10 C11          4.2830    -0.0030    -4.9240 DU         1 H5W      -0.024000
     11 C10          3.8240    -1.1850    -5.7800 c3         1 H5W       0.028000
     12 O09          4.5440    -1.1860    -7.0150 os         1 H5W      -0.253000
     13 C3'          4.1910    -2.2550    -7.8940 c3         1 H5W       0.039000
     14 C2'          3.0580    -1.8150    -8.8450 c3         1 H5W      -0.126000
     15 N1'          3.3830    -2.4660   -10.1410 n7         1 H5W      -0.054000
     16 C5'          4.8600    -2.3480   -10.2480 c3         1 H5W      -0.096000
     17 C4'          5.3760    -2.6060    -8.8160 c3         1 H5W      -0.122000
     18 C08          6.5720    -1.7010    -8.5110 c3         1 H5W      -0.042000
     19 C06          7.7340    -2.0940    -9.3870 c2         1 H5W      -0.013000
     20 N01          8.1600    -3.3420    -9.3820 n2         1 H5W      -0.108000
     21 C02          9.1780    -3.7310   -10.1350 c2         1 H5W      -0.013000
     22 N02          9.5940    -5.0570   -10.0990 nv         1 H5W       0.020000
     23 C03          9.8340    -2.8250   -10.9620 c2         1 H5W      -0.216000
     24 C05          8.3350    -1.1430   -10.1870 c2         1 H5W      -0.197000
     25 C04          9.4100    -1.5090   -10.9880 c2         1 H5W      -0.014000
     26 C07         10.0930    -0.4960   -11.8700 c3         1 H5W      -0.064000
     27 H1           1.4990     0.0010     2.1380 ha         1 H5W       0.121000
     28 H2           3.9620     0.0000     2.1500 ha         1 H5W       0.103000
     29 H3           5.2090     0.0010     0.0260 ha         1 H5W       0.120000
     30 H4           1.5010    -0.0050    -2.1360 ha         1 H5W       0.135000
     31 H5           3.7110    -0.8760    -2.0360 DU         1 H5W       0.049000
     32 H6           3.9920    -0.8770    -4.0570 DU         1 H5W       0.056000
     33 H7           5.3440    -0.0920    -4.7230 ha         1 H5W       0.074500
     34 H8           4.0920     0.9230    -5.4540 ha         1 H5W       0.074500
     35 H9           2.7630    -1.0960    -5.9810 h1         1 H5W       0.040000
     36 H10          4.0150    -2.1110    -5.2500 h1         1 H5W       0.040000
     37 H11          3.8860    -3.1280    -7.3300 h1         1 H5W       0.052000
     38 H12          2.1010    -2.1650    -8.4780 h1         1 H5W       0.070000
     39 H13          3.0560    -0.7370    -8.9560 h1         1 H5W       0.070000
     40 H14          3.1270    -3.4330   -10.1020 hn         1 H5W       0.046000
     41 H16          5.2490    -3.0950   -10.9290 h1         1 H5W       0.069000
     42 H17          5.1350    -1.3520   -10.5730 h1         1 H5W       0.069000
     43 H18          5.6460    -3.6490    -8.6990 hc         1 H5W       0.091000
     44 H19          6.3040    -0.6700    -8.7070 hc         1 H5W       0.073500
     45 H20          6.8510    -1.8100    -7.4700 hc         1 H5W       0.073500
     46 H21          9.8210    -5.5330   -10.9500 hn         1 H5W       0.066500
     47 H22          9.6760    -5.5320    -9.2220 hn         1 H5W       0.066500
     48 H23         10.6680    -3.1450   -11.5750 ha         1 H5W       0.119000
     49 H24          7.9780    -0.1200   -10.1840 ha         1 H5W       0.121000
     50 H25          9.8000    -0.6580   -12.9000 hc         1 H5W       0.050000
     51 H26         11.1670    -0.6030   -11.7780 hc         1 H5W       0.050000
     52 H27          9.8020     0.5020   -11.5650 hc         1 H5W       0.050000
@<TRIPOS>BOND
     1     1     2 1   
     2     2     3 1   
     3     2     6 1   
     4     3     4 1   
     5     3    27 1   
     6     4     5 1   
     7     4    28 1   
     8     5     7 1   
     9     5    29 1   
    10     6     7 1   
    11     6    30 1   
    12     7     8 1   
    13     7    31 1   
    14     8     9 1   
    15     8    31 1   
    16     9    10 1   
    17     9    32 1   
    18    10    11 1   
    19    10    32 1   
    20    10    33 1   
    21    10    34 1   
    22    11    12 1   
    23    11    35 1   
    24    11    36 1   
    25    12    13 1   
    26    13    14 1   
    27    13    17 1   
    28    13    37 1   
    29    14    15 1   
    30    14    38 1   
    31    14    39 1   
    32    15    16 1   
    33    15    40 1   
    34    16    17 1   
    35    16    41 1   
    36    16    42 1   
    37    17    18 1   
    38    17    43 1   
    39    18    19 1   
    40    18    44 1   
    41    18    45 1   
    42    19    20 1   
    43    19    24 1   
    44    20    21 1   
    45    21    22 1   
    46    21    23 1   
    47    22    46 1   
    48    22    47 1   
    49    23    25 1   
    50    23    48 1   
    51    24    25 1   
    52    24    49 1   
    53    25    26 1   
    54    26    50 1   
    55    26    51 1   
    56    26    52 1   
@<TRIPOS>SUBSTRUCTURE
     1 H5W         1 TEMP              0 ****  ****    0 ROOT
