@<TRIPOS>MOLECULE
molecule
   52    54     1     0     0
SMALL
bcc


@<TRIPOS>ATOM
      1 F23          0.0000     0.0000     0.0000 f          1 H5W      -0.141900
      2 C23          1.3510     0.0000     0.0000 ca         1 H5W       0.135900
      3 C24          2.0430     0.0000     1.2010 ca         1 H5W      -0.168000
      4 C25          3.4260     0.0000     1.2080 ca         1 H5W      -0.102000
      5 C26          4.1260    -0.0010     0.0180 ca         1 H5W      -0.133000
      6 C22          2.0420    -0.0060    -1.1970 ca         1 H5W      -0.166000
      7 C21          3.4370    -0.0010    -1.1940 ca         1 H5W      -0.028800
      8 C13          4.1810    -0.0020    -2.4710 ce         1 H5W      -0.118200
      9 C12          3.5240    -0.0020    -3.6220 c2         1 H5W      -0.160200
     10 C11          4.2830    -0.0030    -4.9240 c3         1 H5W      -0.048200
     11 C10          3.8240    -1.1850    -5.7800 c3         1 H5W       0.140400
     12 O09          4.5440    -1.1860    -7.0150 os         1 H5W      -0.430600
     13 C3'          4.1910    -2.2550    -7.8940 c3         1 H5W       0.140100
     14 C2'          3.0580    -1.8150    -8.8450 c3         1 H5W       0.110800
     15 N1'          3.3830    -2.4660   -10.1410 n7         1 H5W      -0.790200
     16 C5'          4.8600    -2.3480   -10.2480 c3         1 H5W       0.138800
     17 C4'          5.3760    -2.6060    -8.8160 c3         1 H5W      -0.061700
     18 C08          6.5720    -1.7010    -8.5110 c3         1 H5W      -0.110700
     19 C06          7.7340    -2.0940    -9.3870 ca         1 H5W       0.461600
     20 N01          8.1600    -3.3420    -9.3820 nb         1 H5W      -0.752000
     21 C02          9.1780    -3.7310   -10.1350 ca         1 H5W       0.699200
     22 N02          9.5940    -5.0570   -10.0990 nv         1 H5W      -1.041500
     23 C03          9.8340    -2.8250   -10.9620 ca         1 H5W      -0.304300
     24 C05          8.3350    -1.1430   -10.1870 ca         1 H5W      -0.292300
     25 C04          9.4100    -1.5090   -10.9880 ca         1 H5W      -0.020300
     26 C07         10.0930    -0.4960   -11.8700 c3         1 H5W      -0.049800
     27 H1           1.4990     0.0010     2.1380 ha         1 H5W       0.144000
     28 H2           3.9620     0.0000     2.1500 ha         1 H5W       0.137000
     29 H3           5.2090     0.0010     0.0270 ha         1 H5W       0.136000
     30 H4           1.5010    -0.0050    -2.1360 ha         1 H5W       0.147000
     31 H5           5.2640    -0.0020    -2.4660 ha         1 H5W       0.135000
     32 H6           2.4400    -0.0020    -3.6270 ha         1 H5W       0.131000
     33 H7           4.0920     0.9230    -5.4540 hc         1 H5W       0.060700
     34 H8           5.3440    -0.0920    -4.7230 hc         1 H5W       0.060700
     35 H9           2.7630    -1.0960    -5.9810 h1         1 H5W       0.027700
     36 H10          4.0150    -2.1110    -5.2500 h1         1 H5W       0.027700
     37 H11          3.8860    -3.1280    -7.3300 h1         1 H5W       0.052700
     38 H12          3.0560    -0.7370    -8.9560 h1         1 H5W       0.046200
     39 H13          2.1010    -2.1650    -8.4780 h1         1 H5W       0.046200
     40 H14          2.9520    -1.9570   -10.8870 hn         1 H5W       0.346800
     41 H16          5.1350    -1.3520   -10.5730 h1         1 H5W       0.045200
     42 H17          5.2490    -3.0950   -10.9290 h1         1 H5W       0.045200
     43 H18          5.6460    -3.6490    -8.6990 hc         1 H5W       0.087700
     44 H19          6.8510    -1.8100    -7.4700 hc         1 H5W       0.066200
     45 H20          6.3040    -0.6700    -8.7070 hc         1 H5W       0.066200
     46 H21          9.6410    -5.5430    -9.2260 hn         1 H5W       0.436800
     47 H22          9.8170    -5.5340   -10.9500 hn         1 H5W       0.436800
     48 H23         10.6680    -3.1450   -11.5750 ha         1 H5W       0.137000
     49 H24          7.9780    -0.1200   -10.1840 ha         1 H5W       0.137000
     50 H25          9.8060     0.5030   -11.5620 hc         1 H5W       0.046700
     51 H26          9.7960    -0.6550   -12.9000 hc         1 H5W       0.046700
     52 H27         11.1670    -0.6060   -11.7820 hc         1 H5W       0.046700
@<TRIPOS>BOND
     1    26    25 1
     2    25    23 ar
     3    25    24 ar
     4    23    21 ar
     5    24    19 ar
     6    21    22 1
     7    21    20 ar
     8    16    15 1
     9    16    17 1
    10    19    20 ar
    11    19    18 1
    12    15    14 1
    13    12    11 1
    14    12    13 1
    15    18    17 1
    16    17    13 1
    17    11    10 1
    18    13    14 1
    19    10     9 1
    20     9     8 2
    21     8     7 1
    22     7     5 ar
    23     7     6 ar
    24     5     4 ar
    25     6     2 ar
    26     4     3 ar
    27     2     3 ar
    28     2     1 1
    29     3    27 1
    30     4    28 1
    31     5    29 1
    32     6    30 1
    33     8    31 1
    34     9    32 1
    35    10    33 1
    36    10    34 1
    37    11    35 1
    38    11    36 1
    39    13    37 1
    40    14    38 1
    41    14    39 1
    42    15    40 1
    43    16    41 1
    44    16    42 1
    45    17    43 1
    46    18    44 1
    47    18    45 1
    48    22    46 1
    49    22    47 1
    50    23    48 1
    51    24    49 1
    52    26    50 1
    53    26    51 1
    54    26    52 1
@<TRIPOS>SUBSTRUCTURE
     1 H5W         1 TEMP              0 ****  ****    0 ROOT
