@<TRIPOS>MOLECULE
molecule
   52    55     1     0     0
SMALL
bcc


@<TRIPOS>ATOM
      1 C20          0.0000     0.0000     0.0000 ca         1 H5Z      -0.137500
      2 C21          1.3950     0.0000     0.0000 ca         1 H5Z       0.143400
      3 C01          1.2840    -1.4180   -13.3790 c3         1 H5Z      -0.047800
      4 C02          1.3710    -1.4780   -11.8770 ca         1 H5Z      -0.083300
      5 C03          2.4290    -2.1340   -11.2730 ca         1 H5Z      -0.115000
      6 C04          2.5120    -2.1920    -9.8960 ca         1 H5Z      -0.112000
      7 C05          0.3980    -0.8700   -11.1040 ca         1 H5Z      -0.115000
      8 C06          0.4760    -0.9230    -9.7260 ca         1 H5Z      -0.112000
      9 C07          1.5340    -1.5880    -9.1160 ca         1 H5Z       0.031900
     10 C09          0.1620    -0.7470    -6.8270 c3         1 H5Z       0.190200
     11 C11         -0.8500     1.4270    -6.8770 c3         1 H5Z       0.127100
     12 C12         -0.6290     2.8560    -7.3770 c3         1 H5Z       0.151400
     13 C14         -1.0160     1.4380    -5.3550 c3         1 H5Z       0.099100
     14 C16         -1.1770    -0.0010    -4.8560 c3         1 H5Z       0.073000
     15 C18         -0.2110    -0.0050    -2.5410 cc         1 H5Z      -0.232600
     16 C19         -0.7440    -0.0060    -1.2860 cd         1 H5Z       0.302800
     17 C23          2.0840     0.0000     1.2000 ca         1 H5Z       0.070900
     18 C25          1.3900    -0.0020     2.4010 ca         1 H5Z       0.104900
     19 C27          0.0040    -0.0030     2.4050 ca         1 H5Z       0.070900
     20 C29         -0.6930    -0.0010     1.2090 ca         1 H5Z       0.143400
     21 C33          0.0370    -0.8230    -5.3020 c3         1 H5Z       0.118100
     22 F22          2.0710     0.0010    -1.1700 f          1 H5Z      -0.098400
     23 F24          3.4350     0.0010     1.2020 f          1 H5Z      -0.103400
     24 F26          2.0670    -0.0030     3.5700 f          1 H5Z      -0.099900
     25 F28         -0.6670    -0.0050     3.5770 f          1 H5Z      -0.103400
     26 F30         -2.0440    -0.0010     1.2150 f          1 H5Z      -0.098400
     27 N17         -1.2610    -0.0060    -3.3930 na         1 H5Z       0.139400
     28 N31         -2.0800    -0.0120    -1.4450 nd         1 H5Z      -0.332000
     29 N32         -2.3470    -0.0130    -2.7030 nc         1 H5Z      -0.198800
     30 O10          0.2770     0.6210    -7.2260 os         1 H5Z      -0.374600
     31 O15          0.1380     2.0260    -4.7520 oh         1 H5Z      -0.586800
     32 O34         -0.1370    -2.1850    -4.9060 oh         1 H5Z      -0.591800
     33 S08          1.6370    -1.6590    -7.3580 ss         1 H5Z      -0.216000
     34 H012         1.8190    -0.5460   -13.7370 hc         1 H5Z       0.044033
     35 H011         0.2450    -1.3520   -13.6780 hc         1 H5Z       0.044033
     36 H013         1.7260    -2.3110   -13.8030 hc         1 H5Z       0.044033
     37 H041         3.3400    -2.7080    -9.4250 ha         1 H5Z       0.139000
     38 H051        -0.4260    -0.3530   -11.5800 ha         1 H5Z       0.134500
     39 H061        -0.2870    -0.4500    -9.1210 ha         1 H5Z       0.139000
     40 H091        -0.7200    -1.1810    -7.2820 h2         1 H5Z       0.071700
     41 H111        -1.7420     1.0140    -7.3330 h1         1 H5Z       0.056700
     42 H122        -1.4400     3.4880    -7.0360 h1         1 H5Z       0.037700
     43 H121         0.3100     3.2330    -6.9880 h1         1 H5Z       0.037700
     44 H141        -1.8980     2.0110    -5.0930 h1         1 H5Z       0.063700
     45 H161        -2.0780    -0.4310    -5.2780 h1         1 H5Z       0.109700
     46 H181         0.8170    -0.2350    -2.7960 h4         1 H5Z       0.204000
     47 H331         0.9330    -0.4190    -4.8460 h1         1 H5Z       0.080700
     48 H131        -0.5880     3.7510    -9.1160 ho         1 H5Z       0.408000
     49 H151        -0.0910     2.8640    -4.3860 ho         1 H5Z       0.414000
     50 H341         0.7000    -2.6180    -4.8920 ho         1 H5Z       0.424000
     51 O13         -0.5890     2.8610    -8.8050 oh         1 H5Z      -0.597800
     52 H031         3.1920    -2.6050   -11.8820 ha         1 H5Z       0.134500
@<TRIPOS>BOND
     1     3     4 1
     2     4     5 ar
     3     4     7 ar
     4     5     6 ar
     5     7     8 ar
     6     6     9 ar
     7     8     9 ar
     8     9    33 1
     9    32    21 1
    10    29    28 2
    11    29    27 1
    12    28    16 1
    13    22     2 1
    14    10    33 1
    15    10    21 1
    16    10    30 1
    17    14    21 1
    18    14    27 1
    19    14    13 1
    20    27    15 1
    21    11    30 1
    22    11    13 1
    23    11    12 1
    24    16    15 2
    25    16     1 1
    26     2     1 ar
    27     2    17 ar
    28    23    17 1
    29    13    31 1
    30    51    12 1
    31     1    20 ar
    32    17    18 ar
    33    20    26 1
    34    20    19 ar
    35    18    19 ar
    36    18    24 1
    37    19    25 1
    38     3    34 1
    39     3    35 1
    40     3    36 1
    41     5    52 1
    42     6    37 1
    43     7    38 1
    44     8    39 1
    45    10    40 1
    46    11    41 1
    47    12    42 1
    48    12    43 1
    49    13    44 1
    50    14    45 1
    51    15    46 1
    52    21    47 1
    53    51    48 1
    54    31    49 1
    55    32    50 1
@<TRIPOS>SUBSTRUCTURE
     1 H5Z         1 TEMP              0 ****  ****    0 ROOT
