@<TRIPOS>MOLECULE
molecule
   26    26     1     0     0
SMALL
bcc


@<TRIPOS>ATOM
      1 O5           0.0000     0.0000     0.0000 o          1 H62      -0.817800
      2 C7           1.2080     0.0000     0.0000 c          1 H62       0.885600
      3 O4           1.8790     0.0060    -1.1630 o          1 H62      -0.817800
      4 C1           1.9620     0.0000     1.3040 c3         1 H62      -0.193700
      5 C6           0.9680    -0.0000     2.4680 c3         1 H62       0.134500
      6 N1           0.1240    -1.2000     2.3910 nz         1 H62      -0.801600
      7 C5           1.7340    -0.0000     3.7930 c3         1 H62      -0.116400
      8 C4           2.6140     1.2490     3.8740 c3         1 H62       0.152100
      9 O2           1.7910     2.4160     3.7980 oh         1 H62      -0.571800
     10 C3           3.6070     1.2490     2.7100 c3         1 H62       0.104100
     11 O1           4.4290     0.0830     2.7850 oh         1 H62      -0.604800
     12 C2           2.8410     1.2490     1.3860 c3         1 H62       0.179100
     13 O3           2.0210     2.4160     1.3100 oh         1 H62      -0.579800
     14 H2           2.5870    -0.8830     1.3650 hc         1 H62       0.073700
     15 H3           0.3490     0.8870     2.4120 hx         1 H62       0.147700
     16 H4          -0.6390    -1.0310     1.7650 hn         1 H62       0.445467
     17 H5          -0.2320    -1.4170     3.3000 hn         1 H62       0.445467
     18 H7           2.3580    -0.8840     3.8470 hc         1 H62       0.051700
     19 H8           1.0290     0.0020     4.6160 hc         1 H62       0.051700
     20 H9           3.1580     1.2460     4.8100 h1         1 H62       0.038700
     21 H10          1.8670     2.9070     4.6000 ho         1 H62       0.399000
     22 H11          4.2260     2.1360     2.7670 h1         1 H62       0.048700
     23 H12          5.3200     0.3370     2.9600 ho         1 H62       0.409000
     24 H13          3.5470     1.2460     0.5640 h1         1 H62       0.082700
     25 H14          2.3980     3.0270     0.7000 ho         1 H62       0.411000
     26 H131         0.6700    -1.9710     2.0590 hn         1 H62       0.445467
@<TRIPOS>BOND
     1     1     2 1
     2     2     3 1
     3     2     4 1
     4     4    12 1
     5     4     5 1
     6    12    13 1
     7    12    10 1
     8     6     5 1
     9     5     7 1
    10    11    10 1
    11    10     8 1
    12     7     8 1
    13     8     9 1
    14     4    14 1
    15     5    15 1
    16     6    16 1
    17     6    17 1
    18     7    18 1
    19     7    19 1
    20     8    20 1
    21     9    21 1
    22    10    22 1
    23    11    23 1
    24    12    24 1
    25    13    25 1
    26    26     6 1
@<TRIPOS>SUBSTRUCTURE
     1 H62         1 TEMP              0 ****  ****    0 ROOT
