@<TRIPOS>MOLECULE
H62
   26    26     1     0     0
SMALL
bcc


@<TRIPOS>ATOM
      1 O5           0.0000     0.0000     0.0000 o          1 H62      -0.860300
      2 C7           1.2080     0.0000     0.0000 c          1 H62       0.970600
      3 O4           1.8790     0.0060    -1.1630 o          1 H62      -0.860300
      4 C1           1.9620     0.0000     1.3040 c3         1 H62      -0.173700
      5 C6           0.9680    -0.0000     2.4680 c3         1 H62      -0.044500
      6 N1           0.1240    -1.2000     2.3910 nz         1 H62       0.040400
      7 C5           1.7340    -0.0000     3.7930 c3         1 H62      -0.053400
      8 C4           2.6140     1.2490     3.8740 c3         1 H62       0.193100
      9 O2           1.7910     2.4160     3.7980 oh         1 H62      -0.551800
     10 C3           3.6070     1.2490     2.7100 c3         1 H62       0.139100
     11 O1           4.4290     0.0830     2.7850 oh         1 H62      -0.584800
     12 C2           2.8410     1.2490     1.3860 c3         1 H62       0.215100
     13 O3           2.0210     2.4160     1.3100 oh         1 H62      -0.563800
     14 H2           2.5870    -0.8830     1.3650 hc         1 H62       0.052700
     15 H3           0.3490     0.8870     2.4120 hx         1 H62       0.124700
     16 H4          -0.6390    -1.0310     1.7650 hn         1 H62       0.223800
     17 H5          -0.2320    -1.4170     3.3000 hn         1 H62       0.223800
     18 H7           2.3580    -0.8840     3.8470 hc         1 H62       0.024200
     19 H8           1.0290     0.0020     4.6160 hc         1 H62       0.024200
     20 H9           3.1580     1.2460     4.8100 h1         1 H62       0.001700
     21 H10          1.8670     2.9070     4.6000 ho         1 H62       0.384000
     22 H11          4.2260     2.1360     2.7670 h1         1 H62       0.013700
     23 H12          5.3200     0.3370     2.9600 ho         1 H62       0.396000
     24 H13          3.5470     1.2460     0.5640 h1         1 H62       0.044700
     25 H14          2.3980     3.0270     0.7000 ho         1 H62       0.397000
     26 H131         0.6700    -1.9710     2.0590 hn         1 H62       0.223800
@<TRIPOS>BOND
     1     1     2 1   
     2     2     3 1   
     3     2     4 1   
     4     4     5 1   
     5     4    12 1   
     6     4    14 1   
     7     5     6 1   
     8     5     7 1   
     9     5    15 1   
    10     6    16 1   
    11     6    17 1   
    12     6    26 1   
    13     7     8 1   
    14     7    18 1   
    15     7    19 1   
    16     8     9 1   
    17     8    10 1   
    18     8    20 1   
    19     9    21 1   
    20    10    11 1   
    21    10    12 1   
    22    10    22 1   
    23    11    23 1   
    24    12    13 1   
    25    12    24 1   
    26    13    25 1   
@<TRIPOS>SUBSTRUCTURE
     1 H62         1 TEMP              0 ****  ****    0 ROOT
