@<TRIPOS>MOLECULE
molecule
   49    52     1     0     0
SMALL
bcc


@<TRIPOS>ATOM
      1 C97          0.0000     0.0000     0.0000 c3         1 H64      -0.091100
      2 C95          1.5310     0.0000     0.0000 c3         1 H64       0.148500
      3 C96          2.0410     0.0000     1.4420 c3         1 H64      -0.091100
      4 N94          2.0200    -1.2000    -0.6930 n7         1 H64      -0.795200
      5 C93          2.0450    -0.8790    -2.1270 c3         1 H64       0.147800
      6 C92          2.5480    -2.0910    -2.9120 c3         1 H64      -0.108400
      7 C91          2.5740    -1.7570    -4.4050 c3         1 H64       0.051300
      8 N9           3.0560    -2.9190    -5.1570 na         1 H64      -0.228000
      9 C4           4.3640    -3.1950    -5.4790 ca         1 H64       0.476800
     10 N3           5.5290    -2.5990    -5.2500 nb         1 H64      -0.796000
     11 C2           6.6510    -3.1250    -5.6950 ca         1 H64       0.737900
     12 N1           6.6820    -4.2550    -6.3780 nb         1 H64      -0.832000
     13 C6           5.5660    -4.9250    -6.6500 ca         1 H64       0.787200
     14 N6           5.6080    -6.1090    -7.3670 nv         1 H64      -0.988500
     15 C5           4.3440    -4.4030    -6.1960 ca         1 H64      -0.201200
     16 N7           3.0500    -4.7980    -6.2840 nc         1 H64      -0.581100
     17 C8           2.2860    -3.9270    -5.6730 cd         1 H64       0.416700
     18 S            0.5320    -4.0350    -5.5350 ss         1 H64      -0.097100
     19 C1'          0.2650    -5.6140    -6.2690 ca         1 H64       0.009900
     20 C6'         -0.2330    -5.7040    -7.5620 ca         1 H64      -0.053000
     21 C5'         -0.4420    -6.9450    -8.1390 ca         1 H64       0.042100
     22 O3'         -0.9140    -7.3020    -9.3700 os         1 H64      -0.321900
     23 C'2         -1.2950    -8.6850    -9.2490 c3         1 H64       0.331200
     24 O1'         -0.4430    -9.1850    -8.2010 os         1 H64      -0.320900
     25 C4'         -0.1530    -8.1030    -7.4200 ca         1 H64       0.082100
     26 C3'          0.3450    -8.0090    -6.1300 ca         1 H64      -0.107000
     27 C2'          0.5580    -6.7700    -5.5570 ca         1 H64       0.042100
     28 Br           1.2370    -6.6480    -3.7960 br         1 H64      -0.053100
     29 H971        -0.3610    -1.0200     0.0480 hc         1 H64       0.039867
     30 H972        -0.3610     0.5520     0.8590 hc         1 H64       0.039867
     31 H973        -0.3610     0.4680    -0.9080 hc         1 H64       0.039867
     32 H95          1.8920     0.8840    -0.5110 h1         1 H64       0.025700
     33 H961         1.7160    -0.9060     1.9400 hc         1 H64       0.039867
     34 H962         3.1230     0.0440     1.4420 hc         1 H64       0.039867
     35 H963         1.6440     0.8620     1.9650 hc         1 H64       0.039867
     36 H94          2.9480    -1.4100    -0.3820 hn         1 H64       0.352800
     37 H931         2.7070    -0.0380    -2.2970 h1         1 H64       0.034700
     38 H932         1.0450    -0.6240    -2.4570 h1         1 H64       0.034700
     39 H921         1.8860    -2.9320    -2.7410 hc         1 H64       0.066700
     40 H922         3.5480    -2.3460    -2.5810 hc         1 H64       0.066700
     41 H911         3.2360    -0.9170    -4.5750 h1         1 H64       0.069700
     42 H912         1.5740    -1.5030    -4.7350 h1         1 H64       0.069700
     43 H2           7.5830    -2.6110    -5.4950 h5         1 H64       0.060100
     44 HN61         6.4710    -6.6090    -7.4570 hn         1 H64       0.449800
     45 HN62         4.7690    -6.4860    -7.7610 hn         1 H64       0.449800
     46 H6'         -0.4920    -4.8040    -8.1070 ha         1 H64       0.161000
     47 H'21        -1.0840    -9.2070   -10.1750 h2         1 H64       0.076200
     48 H'22        -2.3320    -8.7550    -8.9440 h2         1 H64       0.076200
     49 H3'          0.5740    -8.9100    -5.5730 ha         1 H64       0.162000
@<TRIPOS>BOND
     1     1     2 1
     2     1    29 1
     3     1    30 1
     4     1    31 1
     5     2     3 1
     6     2     4 1
     7     2    32 1
     8     3    33 1
     9     3    34 1
    10     3    35 1
    11     4     5 1
    12     4    36 1
    13     5     6 1
    14     5    37 1
    15     5    38 1
    16     6     7 1
    17     6    39 1
    18     6    40 1
    19     7     8 1
    20     7    41 1
    21     7    42 1
    22     8     9 1
    23     8    17 1
    24     9    10 ar
    25     9    15 ar
    26    10    11 ar
    27    11    12 ar
    28    11    43 1
    29    12    13 ar
    30    13    14 1
    31    13    15 ar
    32    14    44 1
    33    14    45 1
    34    15    16 1
    35    16    17 2
    36    17    18 1
    37    18    19 1
    38    19    20 ar
    39    19    27 ar
    40    20    21 ar
    41    20    46 1
    42    21    22 1
    43    21    25 ar
    44    22    23 1
    45    23    24 1
    46    23    47 1
    47    23    48 1
    48    24    25 1
    49    25    26 ar
    50    26    27 ar
    51    26    49 1
    52    27    28 1
@<TRIPOS>SUBSTRUCTURE
     1 H64         1 TEMP              0 ****  ****    0 ROOT
