@<TRIPOS>MOLECULE
molecule
   49    51     1     0     0
SMALL
bcc


@<TRIPOS>ATOM
      1 N01          0.0000     0.0000     0.0000 nb         1 H65      -0.774000
      2 C02          1.3240     0.0000     0.0000 ca         1 H65       0.711200
      3 N02          2.0130    -0.0010    -1.2080 nv         1 H65      -1.015500
      4 C03          2.0320     0.0000     1.1970 ca         1 H65      -0.328300
      5 C04          1.3340     0.0000     2.3920 ca         1 H65      -0.003300
      6 C05         -0.0540     0.0000     2.3480 ca         1 H65      -0.311300
      7 C06         -0.6920    -0.0000     1.1240 ca         1 H65       0.475600
      8 C07          2.0630    -0.0010     3.7100 c3         1 H65      -0.050800
      9 C08         -2.1980     0.0020     1.0700 c3         1 H65      -0.124700
     10 C09         -2.6770     1.1840     0.2250 c3         1 H65      -0.025100
     11 N11         -6.2250     1.7890     1.2670 nb         1 H65      -0.685000
     12 C12         -4.9070     1.7980     1.2730 ca         1 H65       0.415200
     13 C13         -4.1910     1.1450     0.2870 ca         1 H65      -0.207600
     14 C14         -4.8750     0.4760    -0.7140 ca         1 H65      -0.092000
     15 C15         -6.2620     0.4890    -0.6880 ca         1 H65      -0.200600
     16 C16         -6.9100     1.1640     0.3290 ca         1 H65       0.415200
     17 C23         -7.9380    -1.2930    -1.1080 c3         1 H65      -0.072400
     18 C24         -7.0520    -0.2240    -1.7550 c3         1 H65      -0.023400
     19 C25         -7.9380     0.7830    -2.4930 c3         1 H65      -0.072400
     20 C22         -8.7820    -1.9710    -2.1900 c3         1 H65       0.162800
     21 C26         -8.7830     0.0450    -3.5350 c3         1 H65       0.162800
     22 N21         -9.6130    -0.9670    -2.8660 n3         1 H65      -0.731600
     23 C27        -10.5360    -1.6000    -3.8150 c3         1 H65       0.153100
     24 H021         1.5080    -0.0170    -2.0720 hn         1 H65       0.438300
     25 H022         3.0140    -0.0010    -1.2130 hn         1 H65       0.438300
     26 H03          3.1150    -0.0000     1.1940 ha         1 H65       0.134000
     27 H05         -0.6310     0.0000     3.2650 ha         1 H65       0.137000
     28 H071         1.8410     0.9140     4.2460 hc         1 H65       0.047367
     29 H072         1.7420    -0.8510     4.3000 hc         1 H65       0.047367
     30 H073         3.1300    -0.0660     3.5330 hc         1 H65       0.047367
     31 H081        -2.5450    -0.9240     0.6250 hc         1 H65       0.058200
     32 H082        -2.5950     0.0910     2.0740 hc         1 H65       0.058200
     33 H091        -2.2800     1.0960    -0.7790 hc         1 H65       0.063200
     34 H092        -2.3310     2.1090     0.6700 hc         1 H65       0.063200
     35 H14         -4.3420    -0.0080    -1.5230 ha         1 H65       0.141000
     36 H16         -7.9930     1.1790     0.3570 h4         1 H65       0.027100
     37 H24         -6.3770    -0.6940    -2.4590 hc         1 H65       0.053700
     38 H251        -7.3140     1.5160    -2.9900 hc         1 H65       0.052700
     39 H252        -8.5910     1.2770    -1.7840 hc         1 H65       0.052700
     40 H231        -8.5910    -0.8280    -0.3790 hc         1 H65       0.052700
     41 H232        -7.3130    -2.0330    -0.6210 hc         1 H65       0.052700
     42 H261        -9.4220     0.7540    -4.0470 h1         1 H65       0.033950
     43 H262        -8.1290    -0.4410    -4.2490 h1         1 H65       0.033950
     44 H221        -8.1280    -2.4430    -2.9130 h1         1 H65       0.033950
     45 H222        -9.4210    -2.7170    -1.7320 h1         1 H65       0.033950
     46 H271        -9.9700    -2.1220    -4.5770 h1         1 H65       0.031367
     47 H272       -11.1680    -2.3050    -3.2890 h1         1 H65       0.031367
     48 H273       -11.1530    -0.8410    -4.2810 h1         1 H65       0.031367
     49 H12         -4.3790     2.3230     2.0600 h4         1 H65       0.022100
@<TRIPOS>BOND
     1     3     2 1
     2     2     4 ar
     3     2     1 ar
     4     4     5 ar
     5     5     6 ar
     6     5     8 1
     7     6     7 ar
     8     1     7 ar
     9     7     9 1
    10     9    10 1
    11    10    13 1
    12    13    12 ar
    13    13    14 ar
    14    12    11 ar
    15    11    16 ar
    16    16    15 ar
    17    14    15 ar
    18    15    18 1
    19    18    19 1
    20    18    17 1
    21    19    21 1
    22    17    20 1
    23    20    22 1
    24    22    21 1
    25    22    23 1
    26     3    24 1
    27     3    25 1
    28     4    26 1
    29     6    27 1
    30     8    28 1
    31     8    29 1
    32     8    30 1
    33     9    31 1
    34     9    32 1
    35    10    33 1
    36    10    34 1
    37    12    49 1
    38    14    35 1
    39    16    36 1
    40    18    37 1
    41    19    38 1
    42    19    39 1
    43    17    40 1
    44    17    41 1
    45    21    42 1
    46    21    43 1
    47    20    44 1
    48    20    45 1
    49    23    46 1
    50    23    47 1
    51    23    48 1
@<TRIPOS>SUBSTRUCTURE
     1 H65         1 TEMP              0 ****  ****    0 ROOT
