@<TRIPOS>MOLECULE
molecule
   26    27     1     0     0
SMALL
bcc


@<TRIPOS>ATOM
      1 C1           0.0000     0.0000     0.0000 c3         1 H6B      -0.132700
      2 C2           1.5140     0.0000     0.0000 c3         1 H6B       0.175100
      3 C3           2.1020     0.0000     1.3930 c3         1 H6B       0.126100
      4 C4           1.7450     1.2420     2.1820 c3         1 H6B       0.200100
      5 C5           0.2730     1.5870     2.0950 cx         1 H6B       0.018500
      6 C6          -0.5760     1.0220     0.9680 cx         1 H6B       0.135500
      7 N1          -0.7430     0.5730     2.3650 np         1 H6B      -0.648600
      8 O1           1.6180    -1.1450     2.0980 oh         1 H6B      -0.579800
      9 O2           2.5070     2.3420     1.6800 oh         1 H6B      -0.576800
     10 O3           1.9750     1.1600    -0.6960 oh         1 H6B      -0.573800
     11 C7          -0.4890     0.3150    -1.3900 c          1 H6B       0.908600
     12 O4          -1.1800     1.2880    -1.5820 o          1 H6B      -0.850800
     13 O5          -0.1570    -0.4850    -2.4150 o          1 H6B      -0.850800
     14 C8          -1.9390     1.1740     2.9720 c3         1 H6B       0.118100
     15 H1          -0.3490    -0.9850     0.2850 hc         1 H6B       0.072700
     16 H2           1.8600    -0.8840    -0.5210 h1         1 H6B       0.042700
     17 H3           3.1810    -0.0630     1.3140 h1         1 H6B       0.015700
     18 H4           2.0030     1.0780     3.2210 h1         1 H6B       0.013700
     19 H5          -0.0130     2.5870     2.3990 h1         1 H6B       0.061700
     20 H6          -1.3740     1.6650     0.6190 h1         1 H6B       0.108700
     21 H8           2.3430    -1.6990     2.3340 ho         1 H6B       0.377000
     22 H9           2.9360     2.7800     2.3960 ho         1 H6B       0.375000
     23 H10          2.6130     0.9070    -1.3420 ho         1 H6B       0.386000
     24 H12         -2.8100     0.5840     2.7140 h1         1 H6B       0.026700
     25 H13         -2.0640     2.1840     2.6000 h1         1 H6B       0.026700
     26 H14         -1.8240     1.1970     4.0490 h1         1 H6B       0.026700
@<TRIPOS>BOND
     1    14     7 1
     2     7     5 1
     3     7     6 1
     4     5     6 1
     5     5     4 1
     6     6     1 1
     7     4     9 1
     8     4     3 1
     9     1    11 1
    10     1     2 1
    11    12    11 1
    12    11    13 1
    13     8     3 1
    14     3     2 1
    15     2    10 1
    16     1    15 1
    17     2    16 1
    18     3    17 1
    19     4    18 1
    20     5    19 1
    21     6    20 1
    22     8    21 1
    23     9    22 1
    24    10    23 1
    25    14    24 1
    26    14    25 1
    27    14    26 1
@<TRIPOS>SUBSTRUCTURE
     1 H6B         1 TEMP              0 ****  ****    0 ROOT
