@<TRIPOS>MOLECULE
molecule
   32    33     1     0     0
SMALL
bcc


@<TRIPOS>ATOM
      1 C1           0.0000     0.0000     0.0000 c3         1 H6D      -0.110800
      2 S2           1.8150     0.0000     0.0000 sx         1 H6D       0.361200
      3 O3           2.2880     0.0000     1.3390 o          1 H6D      -0.497200
      4 C4           2.2100    -1.6220    -0.5610 cc         1 H6D       0.025700
      5 C5           1.8760    -2.7330     0.2040 cc         1 H6D      -0.198000
      6 C6           2.1920    -4.0010    -0.2450 cd         1 H6D       0.137400
      7 N7           2.8320    -4.1800    -1.4390 ns         1 H6D      -0.393100
      8 C8           3.1720    -3.1270    -2.2060 c          1 H6D       0.695700
      9 O9           3.7430    -3.3050    -3.2680 o          1 H6D      -0.628500
     10 C10          2.8600    -1.8090    -1.7820 cd         1 H6D      -0.049900
     11 C11          3.2120    -0.6850    -2.5950 ch         1 H6D       0.212500
     12 N12          3.4960     0.1950    -3.2550 n1         1 H6D      -0.340800
     13 C13          1.8330    -5.1760     0.5730 ca         1 H6D      -0.055800
     14 C14          1.1780    -5.0050     1.7950 ca         1 H6D      -0.115000
     15 C15          0.8440    -6.1060     2.5570 ca         1 H6D      -0.085000
     16 C16          1.1570    -7.3790     2.1160 ca         1 H6D      -0.182000
     17 C17          1.8080    -7.5590     0.9020 ca         1 H6D       0.134100
     18 C18          2.1420    -6.4620     0.1260 ca         1 H6D      -0.125000
     19 O19          2.1130    -8.8110     0.4740 os         1 H6D      -0.338900
     20 C20          1.7350    -9.8970     1.3230 c3         1 H6D       0.796700
     21 F21          0.3470    -9.8890     1.5000 f          1 H6D      -0.200967
     22 F22          2.1210   -11.1070     0.7340 f          1 H6D      -0.200967
     23 F23          2.3640    -9.7600     2.5640 f          1 H6D      -0.200967
     24 H1          -0.3610     0.4150    -0.9330 h1         1 H6D       0.081033
     25 H1A         -0.3610    -1.0160     0.1070 h1         1 H6D       0.081033
     26 H1B         -0.3610     0.6000     0.8260 h1         1 H6D       0.081033
     27 H5           1.3520    -2.6050     1.1440 ha         1 H6D       0.164000
     28 HN7          3.0630    -5.1050    -1.7440 hn         1 H6D       0.348500
     29 H14          0.9350    -4.0090     2.1440 ha         1 H6D       0.150000
     30 H15          0.3360    -5.9750     3.5050 ha         1 H6D       0.149000
     31 H16          0.8930    -8.2400     2.7170 ha         1 H6D       0.158000
     32 H18          2.6490    -6.5990    -0.8220 ha         1 H6D       0.146000
@<TRIPOS>BOND
     1     1     2 1
     2     2     3 2
     3     2     4 1
     4     4     5 1
     5     4    10 2
     6     5     6 2
     7     6     7 1
     8     6    13 1
     9     7     8 1
    10     8     9 2
    11     8    10 1
    12    10    11 1
    13    11    12 3
    14    13    14 ar
    15    13    18 ar
    16    14    15 ar
    17    15    16 ar
    18    16    17 ar
    19    17    18 ar
    20    17    19 1
    21    19    20 1
    22    20    21 1
    23    20    22 1
    24    20    23 1
    25     1    24 1
    26     1    25 1
    27     1    26 1
    28     5    27 1
    29     7    28 1
    30    14    29 1
    31    15    30 1
    32    16    31 1
    33    18    32 1
@<TRIPOS>SUBSTRUCTURE
     1 H6D         1 TEMP              0 ****  ****    0 ROOT
