@<TRIPOS>MOLECULE
H6G
   52    54     1     0     0
SMALL
bcc


@<TRIPOS>ATOM
      1 C13          0.0000     0.0000     0.0000 c3         1 H6G       0.049000
      2 C15         -1.5930    -0.4660     1.7770 c          1 H6G       0.591300
      3 C17         -3.1920    -0.9130     3.5460 c2         1 H6G      -0.069000
      4 C20          1.1460    -2.0480     2.4060 c3         1 H6G       0.117800
      5 C22          5.0290    -0.4530     3.9250 cp         1 H6G       0.600000
      6 C24          6.8020     0.7280     5.2130 ca         1 H6G      -0.178300
      7 C26          6.8820     3.1080     5.1860 ca         1 H6G      -0.226300
      8 C02          4.9150    -7.6980     4.1240 c          1 H6G       0.983600
      9 C04          5.5630    -6.4120     4.5670 c3         1 H6G      -0.144400
     10 C05          4.8170    -5.2270     3.9520 c3         1 H6G       0.154800
     11 C07          4.9410    -2.7600     3.9500 ca         1 H6G       0.563200
     12 C08          3.8350    -2.7170     3.1050 ca         1 H6G      -0.463600
     13 C09          3.3610    -1.4730     2.6960 ca         1 H6G       0.545200
     14 C11          2.0480     0.0000     1.4240 c3         1 H6G       0.111800
     15 C12          1.5380     0.0000     0.0000 c3         1 H6G      -0.047400
     16 C16         -2.1480    -1.3260     2.8330 ce         1 H6G      -0.247200
     17 C19          0.0330    -2.1870     1.3400 c3         1 H6G       0.031000
     18 C23          5.6930     0.7970     4.3730 cp         1 H6G       0.327300
     19 C25          7.4070     1.9020     5.6260 ca         1 H6G      -0.090000
     20 C27          5.7840     3.1020     4.3430 ca         1 H6G       0.382200
     21 N10          2.2640    -1.3800     1.8550 nh         1 H6G      -0.452300
     22 N14         -0.5350    -0.8850     1.0540 n          1 H6G      -0.137800
     23 N21          3.9780    -0.3730     3.1220 nb         1 H6G      -0.703000
     24 N28          5.2260     1.9700     3.9690 nb         1 H6G      -0.534000
     25 N29          5.5060    -1.6190     4.3350 nb         1 H6G      -0.730000
     26 O01          3.9550    -7.6710     3.3920 o          1 H6G      -0.894800
     27 O03          5.4050    -8.8760     4.5440 o          1 H6G      -0.894800
     28 O18         -2.0870     0.6230     1.5570 o          1 H6G      -0.667100
     29 H1          -0.3530     1.0090     0.1730 h1         1 H6G       0.028700
     30 H2          -0.3530    -0.3450    -0.9640 h1         1 H6G       0.028700
     31 H3          -3.6330     0.0570     3.3480 ha         1 H6G       0.088500
     32 H4          -3.6010    -1.5460     4.3240 ha         1 H6G       0.088500
     33 H5           0.7670    -1.4780     3.2460 h1         1 H6G       0.031700
     34 H6           1.4460    -3.0330     2.7410 h1         1 H6G       0.031700
     35 H7           7.1860    -0.2320     5.5380 ha         1 H6G       0.137000
     36 H8           7.3340     4.0450     5.4900 ha         1 H6G       0.104000
     37 H9           6.5960    -6.3970     4.2410 hc         1 H6G       0.011700
     38 H10          5.5250    -6.3410     5.6480 hc         1 H6G       0.011700
     39 H11          4.8560    -5.2970     2.8720 h1         1 H6G       0.030700
     40 H12          3.7840    -5.2420     4.2780 h1         1 H6G       0.030700
     41 H13          3.5080    -3.6150     2.5960 ha         1 H6G       0.159000
     42 H14          2.9840     0.5440     1.4720 h1         1 H6G       0.047200
     43 H15          1.3160     0.4700     2.0700 h1         1 H6G       0.047200
     44 H16          1.8970     0.8860    -0.5100 hc         1 H6G       0.026200
     45 H17          1.8970    -0.8860    -0.5100 hc         1 H6G       0.026200
     46 H18         -1.7060    -2.2950     3.0300 ha         1 H6G       0.120000
     47 H19         -0.7440    -2.8430     1.7150 h1         1 H6G       0.037200
     48 H20          0.4550    -2.6010     0.4320 h1         1 H6G       0.037200
     49 H21          8.2680     1.8800     6.2830 ha         1 H6G       0.104000
     50 H22          5.3730     4.0420     3.9950 h4         1 H6G      -0.025900
     51 H23          6.2380    -4.0000     4.9960 hn         1 H6G       0.294800
     52 N06          5.4470    -3.9760     4.3830 nu         1 H6G      -0.474900
@<TRIPOS>BOND
     1     1    15 1   
     2     1    22 1   
     3     1    29 1   
     4     1    30 1   
     5     2    16 1   
     6     2    22 1   
     7     2    28 2   
     8     3    16 2   
     9     3    31 1   
    10     3    32 1   
    11     4    17 1   
    12     4    21 1   
    13     4    33 1   
    14     4    34 1   
    15     5    18 1   
    16     5    23 ar  
    17     5    25 ar  
    18     6    18 ar  
    19     6    19 ar  
    20     6    35 1   
    21     7    19 ar  
    22     7    20 ar  
    23     7    36 1   
    24     8     9 1   
    25     8    26 1   
    26     8    27 1   
    27     9    10 1   
    28     9    37 1   
    29     9    38 1   
    30    10    39 1   
    31    10    40 1   
    32    10    52 1   
    33    11    12 ar  
    34    11    25 ar  
    35    11    52 1   
    36    12    13 ar  
    37    12    41 1   
    38    13    21 1   
    39    13    23 ar  
    40    14    15 1   
    41    14    21 1   
    42    14    42 1   
    43    14    43 1   
    44    15    44 1   
    45    15    45 1   
    46    16    46 1   
    47    17    22 1   
    48    17    47 1   
    49    17    48 1   
    50    18    24 ar  
    51    19    49 1   
    52    20    24 ar  
    53    20    50 1   
    54    51    52 1   
@<TRIPOS>SUBSTRUCTURE
     1 H6G         1 TEMP              0 ****  ****    0 ROOT
