@<TRIPOS>MOLECULE
H6J
   53    55     1     0     0
SMALL
bcc


@<TRIPOS>ATOM
      1 C13          0.0000     0.0000     0.0000 c3         1 H6J       0.239800
      2 C17         -2.4480    -2.3180    -1.1460 ce         1 H6J      -0.211100
      3 C20         -0.7330    -1.5570     1.9070 c3         1 H6J       0.229800
      4 C21          0.3810    -0.9780     2.8000 c3         1 H6J       0.087800
      5 C24          2.8670    -1.9460     6.7280 cp         1 H6J       0.330300
      6 C26          3.4550    -2.3130     9.0190 ca         1 H6J      -0.089000
      7 C28          1.2260    -1.7750     8.3420 ca         1 H6J       0.382200
      8 C02          8.5460    -2.4300     0.3760 c          1 H6J       0.983600
      9 C04          8.1230    -2.5050     1.8200 c3         1 H6J      -0.144400
     10 C05          6.6270    -2.2010     1.9300 c3         1 H6J       0.153800
     11 C07          4.8950    -2.0350     3.6830 ca         1 H6J       0.562200
     12 C08          3.9530    -1.7240     2.7060 ca         1 H6J      -0.457600
     13 C09          2.6390    -1.4910     3.1040 ca         1 H6J       0.546200
     14 C11          2.0470     0.0000     1.3880 c3         1 H6J       0.129800
     15 C12          1.5490     0.0000     0.0000 c3         1 H6J      -0.057400
     16 C18         -2.7220    -2.0090    -2.3890 c2         1 H6J       0.004000
     17 C23          3.2520    -1.8710     5.2970 cp         1 H6J       0.598000
     18 C25          3.8300    -2.2480     7.6880 ca         1 H6J      -0.178300
     19 C27          2.1290    -2.0760     9.3460 ca         1 H6J      -0.227300
     20 N10          1.6670    -1.1790     2.1660 nh         1 H6J      -0.431300
     21 N14         -0.4840    -1.2770     0.4770 n3         1 H6J      -0.509500
     22 N22          2.3290    -1.5720     4.3950 nb         1 H6J      -0.707000
     23 N29          1.6090    -1.7200     7.0830 nb         1 H6J      -0.538000
     24 N30          4.5130    -2.0940     4.9560 nb         1 H6J      -0.732000
     25 O01          7.7350    -2.1600    -0.4770 o          1 H6J      -0.894800
     26 O03          9.8250    -2.6620     0.0390 o          1 H6J      -0.894800
     27 O16         -0.6860    -3.7040     0.0840 o          1 H6J      -0.586800
     28 O19          0.0310    -2.1790    -1.7620 o          1 H6J      -0.586800
     29 S15         -0.7700    -2.4780    -0.6260 sy         1 H6J       1.025800
     30 H1          -0.3590     0.1670    -1.0080 h1         1 H6J       0.010700
     31 H2          -0.3600     0.7870     0.6520 h1         1 H6J       0.010700
     32 H3          -3.2520    -2.4950    -0.4420 h4         1 H6J       0.134000
     33 H4          -1.6800    -1.1140     2.1930 h1         1 H6J       0.021200
     34 H5          -0.7800    -2.6300     2.0530 h1         1 H6J       0.021200
     35 H6           0.2120     0.0820     2.9430 h1         1 H6J       0.045700
     36 H7           0.3700    -1.4820     3.7590 h1         1 H6J       0.045700
     37 H8           4.1820    -2.5480     9.7880 ha         1 H6J       0.104000
     38 H9           0.1890    -1.5870     8.5940 h4         1 H6J      -0.027900
     39 H10          8.3180    -3.5000     2.2020 hc         1 H6J       0.011200
     40 H11          8.6820    -1.7800     2.3990 hc         1 H6J       0.011200
     41 H12          6.0680    -2.9270     1.3510 h1         1 H6J       0.032700
     42 H13          6.4320    -1.2070     1.5480 h1         1 H6J       0.032700
     43 H14          4.1800    -1.8950     1.6610 ha         1 H6J       0.163000
     44 H15          3.1290     0.0590     1.3630 h1         1 H6J       0.022700
     45 H16          1.6610     0.8790     1.8900 h1         1 H6J       0.022700
     46 H17          1.9080     0.8860    -0.5100 hc         1 H6J       0.040200
     47 H18          1.9080    -0.8860    -0.5100 hc         1 H6J       0.040200
     48 H19         -1.9180    -1.8520    -3.0980 ha         1 H6J       0.086000
     49 H20         -3.7520    -1.9110    -2.7090 ha         1 H6J       0.086000
     50 H21          4.8580    -2.4280     7.3970 ha         1 H6J       0.138000
     51 H22          1.8040    -2.1190    10.3780 ha         1 H6J       0.103000
     52 H23          6.8880    -2.4970     4.0420 hn         1 H6J       0.293800
     53 N06          6.2150    -2.2750     3.3340 nu         1 H6J      -0.473900
@<TRIPOS>BOND
     1     1    15 1   
     2     1    21 1   
     3     1    30 1   
     4     1    31 1   
     5     2    16 2   
     6     2    29 1   
     7     2    32 1   
     8     3     4 1   
     9     3    21 1   
    10     3    33 1   
    11     3    34 1   
    12     4    20 1   
    13     4    35 1   
    14     4    36 1   
    15     5    17 1   
    16     5    18 ar  
    17     5    23 ar  
    18     6    18 ar  
    19     6    19 ar  
    20     6    37 1   
    21     7    19 ar  
    22     7    23 ar  
    23     7    38 1   
    24     8     9 1   
    25     8    25 1   
    26     8    26 1   
    27     9    10 1   
    28     9    39 1   
    29     9    40 1   
    30    10    41 1   
    31    10    42 1   
    32    10    53 1   
    33    11    12 ar  
    34    11    24 ar  
    35    11    53 1   
    36    12    13 ar  
    37    12    43 1   
    38    13    20 1   
    39    13    22 ar  
    40    14    15 1   
    41    14    20 1   
    42    14    44 1   
    43    14    45 1   
    44    15    46 1   
    45    15    47 1   
    46    16    48 1   
    47    16    49 1   
    48    17    22 ar  
    49    17    24 ar  
    50    18    50 1   
    51    19    51 1   
    52    21    29 1   
    53    27    29 2   
    54    28    29 2   
    55    52    53 1   
@<TRIPOS>SUBSTRUCTURE
     1 H6J         1 TEMP              0 ****  ****    0 ROOT
