@<TRIPOS>MOLECULE
molecule
   34    36     1     0     0
SMALL
bcc


@<TRIPOS>ATOM
      1 N4          -1.2960    -0.0140    -2.2170 n1         1 H6K      -0.337800
      2 C6          -0.7160    -0.0000    -1.2400 cg         1 H6K       0.144800
      3 C4           0.0000     0.0000     0.0000 ca         1 H6K       0.336000
      4 N2           1.3330     0.0000     0.0000 nb         1 H6K      -0.593000
      5 C3           1.9900     0.0000     1.1410 ca         1 H6K       0.255900
      6 C5          -0.6970     0.0040     1.2080 ca         1 H6K       0.379900
      7 N3          -0.0350     0.0040     2.3510 nb         1 H6K      -0.645000
      8 C2           1.2920    -0.0010     2.3490 ca         1 H6K       0.468900
      9 N1           1.9880    -0.0010     3.5530 ns         1 H6K      -0.552400
     10 C1           1.3190     0.1010     4.7180 c          1 H6K       0.779100
     11 O            0.1030     0.1010     4.7240 o          1 H6K      -0.570100
     12 N5           1.9980     0.2040     5.8780 ns         1 H6K      -0.541400
     13 C7           1.3020     0.3100     7.0910 cc         1 H6K       0.477200
     14 N7           1.8450     0.4160     8.2810 nd         1 H6K      -0.553800
     15 N6           0.8190     0.4990     9.2310 na         1 H6K      -0.038600
     16 C9          -0.3710     0.4390     8.5690 cd         1 H6K      -0.014300
     17 C8          -0.0910     0.3270     7.2360 cc         1 H6K      -0.324300
     18 C10         -1.7170     0.4910     9.1790 ca         1 H6K      -0.025000
     19 C15         -1.8540     0.6120    10.5620 ca         1 H6K      -0.111000
     20 C14         -3.1130     0.6600    11.1260 ca         1 H6K      -0.125000
     21 C13         -4.2370     0.5870    10.3230 ca         1 H6K      -0.121000
     22 C12         -4.1080     0.4670     8.9510 ca         1 H6K      -0.125000
     23 C11         -2.8540     0.4230     8.3750 ca         1 H6K      -0.111000
     24 H3           3.0730    -0.0000     1.1410 h4         1 H6K       0.035100
     25 H4          -1.7800    -0.0210     1.2090 h4         1 H6K       0.049100
     26 H2           2.9870    -0.0630     3.5540 hn         1 H6K       0.332500
     27 H5           2.9990     0.2040     5.8730 hn         1 H6K       0.326500
     28 H1           0.9400     0.5860    10.2210 hn         1 H6K       0.333700
     29 H6          -0.8160     0.2610     6.4340 ha         1 H6K       0.201000
     30 H11         -0.9740     0.6680    11.1910 ha         1 H6K       0.134500
     31 H10         -3.2220     0.7540    12.1990 ha         1 H6K       0.134000
     32 H9          -5.2240     0.6260    10.7680 ha         1 H6K       0.132000
     33 H8          -4.9910     0.4100     8.3270 ha         1 H6K       0.134000
     34 H7          -2.7530     0.3320     7.3000 ha         1 H6K       0.134500
@<TRIPOS>BOND
     1    22    21 ar
     2    22    23 ar
     3    21    20 ar
     4    23    18 ar
     5    20    19 ar
     6    11    10 2
     7    18    19 ar
     8    18    16 1
     9    17    16 2
    10    17    13 1
    11    16    15 1
    12    10     9 1
    13    10    12 1
    14     9     8 1
    15    13    12 1
    16    13    14 2
    17    15    14 1
    18     8     5 ar
    19     8     7 ar
    20     5     4 ar
    21     7     6 ar
    22     4     3 ar
    23     6     3 ar
    24     3     2 1
    25     2     1 3
    26     5    24 1
    27     6    25 1
    28     9    26 1
    29    12    27 1
    30    15    28 1
    31    17    29 1
    32    19    30 1
    33    20    31 1
    34    21    32 1
    35    22    33 1
    36    23    34 1
@<TRIPOS>SUBSTRUCTURE
     1 H6K         1 TEMP              0 ****  ****    0 ROOT
