@<TRIPOS>MOLECULE
H6P
   24    23     1     0     0
SMALL
bcc


@<TRIPOS>ATOM
      1 P13        -0.2190   -0.0820    0.5090 p5        1 H6P      1.574800
      2 O14         0.9670    0.5000    1.2060 o         1 H6P     -0.932500
      3 O15        -1.5110    0.0390    1.2500 o         1 H6P     -0.932500
      4 O16         0.0090   -1.3870   -0.2910 os        1 H6P     -0.799800
      5 P17         0.2800   -2.9360   -1.1560 p5        1 H6P      1.458900
      6 O18        -0.9820   -3.1400   -1.9470 o         1 H6P     -0.958167
      7 O19         1.5020   -2.6800   -1.9930 o         1 H6P     -0.958167
      8 O20         0.4810   -3.9100   -0.0280 o         1 H6P     -0.958167
      9 C21        -1.3040    5.2420    0.3940 c3        1 H6P     -0.020900
     10 C27        -0.9410    3.3570   -1.1930 c2        1 H6P     -0.027200
     11 C28        -0.6890    2.3230   -0.1500 c3        1 H6P      0.188600
     12 O29        -0.4610    1.0940   -0.7330 os        1 H6P     -0.559200
     13 C30        -1.2200    4.6550   -0.9610 c2        1 H6P     -0.336400
     14 C31        -1.4430    5.6120   -2.0800 c3        1 H6P      0.196600
     15 O33        -2.7610    6.1570   -2.1030 oh        1 H6P     -0.653800
     16 H21        -0.3940    5.8540    0.6130 hc        1 H6P      0.019033
     17 H21A       -1.3850    4.4410    1.1720 hc        1 H6P      0.019033
     18 H21B       -2.1970    5.9130    0.4730 hc        1 H6P      0.019033
     19 H27        -0.8860    2.9720   -2.2280 ha        1 H6P      0.127000
     20 H28        -1.5810    2.2520    0.5440 h1        1 H6P      0.046700
     21 H28A        0.2090    2.6180    0.4730 h1        1 H6P      0.046700
     22 H31        -1.2590    5.1250   -3.0780 h1        1 H6P      0.016200
     23 H31A       -0.7720    6.5100   -1.9850 h1        1 H6P      0.016200
     24 HO33       -3.3450    5.4910   -1.7250 ho        1 H6P      0.406000
@<TRIPOS>BOND
     1    1    2 1   
     2    1    3 1   
     3    1    4 1   
     4    1   12 1   
     5    4    5 1   
     6    5    6 1   
     7    5    7 1   
     8    5    8 1   
     9    9   13 1   
    10    9   16 1   
    11    9   17 1   
    12    9   18 1   
    13   10   11 1   
    14   10   13 2   
    15   10   19 1   
    16   11   12 1   
    17   11   20 1   
    18   11   21 1   
    19   13   14 1   
    20   14   15 1   
    21   14   22 1   
    22   14   23 1   
    23   15   24 1   
@<TRIPOS>SUBSTRUCTURE
     1 H6P         1 TEMP              0 ****  ****    0 ROOT
