@<TRIPOS>MOLECULE
molecule
   24    23     1     0     0
SMALL
bcc


@<TRIPOS>ATOM
      1 P13          0.0000     0.0000     0.0000 p5         1 H6P       1.400800
      2 O14          1.4800     0.0000     0.0000 o          1 H6P      -0.851000
      3 O15         -0.5360     0.0000     1.5180 o          1 H6P      -0.851000
      4 O16         -0.5360    -1.3150    -0.7590 os         1 H6P      -0.700800
      5 P17         -0.1360    -2.8740    -0.7140 p5         1 H6P       1.294900
      6 O18         -0.6590    -3.6020    -2.0510 o          1 H6P      -0.944167
      7 O19          1.3360    -3.0040    -0.6250 o          1 H6P      -0.944167
      8 O20         -0.8130    -3.5640     0.5730 o          1 H6P      -0.944167
      9 C21         -1.2270     5.0170     0.6730 c3         1 H6P      -0.097900
     10 C27         -0.8280     3.6330    -1.2970 c2         1 H6P      -0.382200
     11 C28         -0.1490     2.6390    -0.3910 c3         1 H6P       0.221600
     12 O29         -0.5380     1.3140    -0.7590 os         1 H6P      -0.540200
     13 C30         -1.3790     4.7090    -0.7940 c2         1 H6P      -0.106400
     14 C31         -2.1660     5.6380    -1.6820 c3         1 H6P       0.199600
     15 O33         -2.1650     5.1340    -3.0190 oh         1 H6P      -0.550800
     16 H21         -1.5640     6.0290     0.8660 hc         1 H6P       0.033367
     17 H21A        -0.1850     4.9240     0.9550 hc         1 H6P       0.033367
     18 H21B        -1.8220     4.3220     1.2520 hc         1 H6P       0.033367
     19 H27          0.1910     3.7720    -0.9570 ha         1 H6P       0.337000
     20 H28          0.9250     2.7400    -0.4850 h1         1 H6P       0.008200
     21 H28A        -0.4400     2.8290     0.6360 h1         1 H6P       0.008200
     22 H31         -3.1850     5.7060    -1.3220 h1         1 H6P      -0.006800
     23 H31A        -1.7110     6.6220    -1.6670 h1         1 H6P      -0.006800
     24 HO33        -2.6530     5.7180    -3.5750 ho         1 H6P       0.356000
@<TRIPOS>BOND
     1     2     1 1
     2     3     1 1
     3     4     1 1
     4     1    12 1
     5     4     5 1
     6     7     5 1
     7     5     8 1
     8     5     6 1
     9     9    13 1
    10     9    16 1
    11     9    17 1
    12     9    18 1
    13    13    10 2
    14    11    10 1
    15    10    19 1
    16    12    11 1
    17    11    20 1
    18    11    21 1
    19    13    14 1
    20    14    15 1
    21    14    22 1
    22    14    23 1
    23    15    24 1
@<TRIPOS>SUBSTRUCTURE
     1 H6P         1 TEMP              0 ****  ****    0 ROOT
