@<TRIPOS>MOLECULE
molecule
   39    39     1     0     0
SMALL
bcc


@<TRIPOS>ATOM
      1 C8           0.0000     0.0000     0.0000 c3         1 H6Q       0.147400
      2 C5           3.5720    -1.2740    -0.6630 c3         1 H6Q       0.117100
      3 C6           2.0410    -1.2510    -0.7200 c3         1 H6Q       0.091100
      4 O6           5.4450    -1.1720     0.8640 os         1 H6Q      -0.584200
      5 C2           8.9340    -2.8600     1.8100 c3         1 H6Q       0.261100
      6 C4           4.0180    -1.2230     0.8020 c3         1 H6Q       0.220100
      7 C1           9.8460    -2.1130     2.7850 c3         1 H6Q       0.316900
      8 O2          10.8870    -2.9860     3.2280 oh         1 H6Q      -0.596300
      9 C3           9.7520    -3.3310     0.6060 c3         1 H6Q      -0.100100
     10 P1           6.3300    -2.2940     1.6040 p5         1 H6Q       1.345800
     11 O4           6.0000    -3.6270     1.0540 o          1 H6Q      -0.803500
     12 O5           7.8930    -1.9870     1.3660 os         1 H6Q      -0.594200
     13 O7           4.0550    -2.4750    -1.2690 oh         1 H6Q      -0.567800
     14 O8           1.6140    -1.2250    -2.0840 oh         1 H6Q      -0.619800
     15 C7           1.5310     0.0000     0.0000 c3         1 H6Q       0.161100
     16 O9          -0.4750     1.2220     0.5680 oh         1 H6Q      -0.602800
     17 OX1          2.0070     0.0000     1.3480 os         1 H6Q      -0.444600
     18 C9           3.4320     0.0260     1.4630 c3         1 H6Q       0.326900
     19 OX2          3.7970     0.0500     2.8440 oh         1 H6Q      -0.526800
     20 H1          -0.3610    -0.8350     0.5870 h1         1 H6Q       0.030700
     21 H2          -0.3610    -0.0900    -1.0170 h1         1 H6Q       0.030700
     22 H3           3.9650    -0.4130    -1.1900 h1         1 H6Q       0.041700
     23 H4           1.6480    -2.1340    -0.2290 h1         1 H6Q       0.062700
     24 H5           8.4990    -3.7180     2.3080 h1         1 H6Q       0.077700
     25 H6           3.6600    -2.1060     1.3180 h1         1 H6Q       0.089700
     26 H7           9.5820    -1.0450     4.4040 ho         1 H6Q       0.377500
     27 H8          11.5620    -2.4810     3.6510 ho         1 H6Q       0.377500
     28 H11          9.3440    -2.8980    -0.3000 hc         1 H6Q       0.034033
     29 H13          4.4870    -2.2650    -2.0800 ho         1 H6Q       0.396000
     30 H14          1.2950    -2.0770    -2.3300 ho         1 H6Q       0.406000
     31 H15          1.8970     0.8830    -0.5100 h1         1 H6Q       0.050700
     32 H16         -1.4140     1.2600     0.4930 ho         1 H6Q       0.391000
     33 H17          3.8160     0.9090     0.9670 h2         1 H6Q       0.018700
     34 H18          3.6650     0.9180     3.1890 ho         1 H6Q       0.390000
     35 H19         10.2820    -1.2550     2.2870 h2         1 H6Q       0.008700
     36 H9           9.7100    -4.4120     0.5410 hc         1 H6Q       0.034033
     37 O1           9.0810    -1.6730     3.9100 oh         1 H6Q      -0.596300
     38 O3           6.0140    -2.2710     3.1830 o          1 H6Q      -0.803500
     39 H10         10.7820    -3.0170     0.7240 hc         1 H6Q       0.034033
@<TRIPOS>BOND
     1    16     1 1
     2     1    15 1
     3    14     3 1
     4     3    15 1
     5     3     2 1
     6    15    17 1
     7    17    18 1
     8    13     2 1
     9     2     6 1
    10     6    18 1
    11     6     4 1
    12    11    10 1
    13    18    19 1
    14    12    10 1
    15    12     5 1
    16     9     5 1
    17    10     4 1
    18    10    38 1
    19     8     7 1
    20     5     7 1
    21     7    37 1
    22     1    20 1
    23     1    21 1
    24     2    22 1
    25     3    23 1
    26     5    24 1
    27     6    25 1
    28    37    26 1
    29     8    27 1
    30     9    36 1
    31     9    39 1
    32     9    28 1
    33    13    29 1
    34    14    30 1
    35    15    31 1
    36    16    32 1
    37    18    33 1
    38    19    34 1
    39     7    35 1
@<TRIPOS>SUBSTRUCTURE
     1 H6Q         1 TEMP              0 ****  ****    0 ROOT
