@<TRIPOS>MOLECULE
H6S
   51    54     1     0     0
SMALL
bcc


@<TRIPOS>ATOM
      1 C02          0.0000     0.0000     0.0000 ca         1 H6S      -0.018600
      2 C03          1.3840     0.0000     0.0000 ca         1 H6S      -0.111000
      3 C04          2.0740     0.0000     1.1960 ca         1 H6S      -0.098000
      4 C05          1.3830    -0.0000     2.3940 ca         1 H6S      -0.104000
      5 C06          0.0020    -0.0000     2.3940 ca         1 H6S      -0.053000
      6 C07         -0.6910     0.0060     1.1970 ca         1 H6S      -0.111300
      7 C08         -2.1980     0.0060     1.1980 c3         1 H6S       0.325600
      8 C11         -3.3760    -2.4870     3.7080 c3         1 H6S      -0.027400
      9 C12         -3.7130    -3.9760     3.6020 c3         1 H6S       0.127500
     10 C15         -2.6440    -6.0330     4.2130 c3         1 H6S       0.150800
     11 C16         -4.0410    -5.9940     4.8670 c3         1 H6S      -0.046400
     12 C17         -4.3600    -4.4750     4.9180 c3         1 H6S      -0.027400
     13 C18         -2.7000     1.4230     1.0810 cc         1 H6S      -0.054600
     14 C20         -3.1320     1.9680    -0.0400 cd         1 H6S      -0.207800
     15 C21         -3.5690     3.3490     0.0780 ca         1 H6S       0.359100
     16 C22         -3.4380     3.8220     1.3890 ca         1 H6S      -0.033400
     17 C23         -3.8190     5.1470     1.6860 ca         1 H6S      -0.035600
     18 C24         -3.6940     5.6810     3.0580 c          1 H6S       0.965200
     19 C27         -4.3140     5.9400     0.6520 ca         1 H6S      -0.187300
     20 C28         -4.4140     5.4020    -0.6190 ca         1 H6S       0.364200
     21 N13         -2.4780    -4.7750     3.4620 n3         1 H6S      -0.541600
     22 N29         -4.0550     4.1670    -0.8700 nb         1 H6S      -0.585000
     23 O09         -2.6740    -0.5680     2.4170 os         1 H6S      -0.386600
     24 O25         -4.0610     6.9500     3.3230 o          1 H6S      -0.864800
     25 O26         -3.2600     4.9770     3.9480 o          1 H6S      -0.864800
     26 S19         -2.7920     2.5510     2.4190 ss         1 H6S      -0.129500
     27 Cl          -0.8680     0.0010    -1.5040 cl         1 H6S      -0.036400
     28 H1           1.9260    -0.0020    -0.9380 ha         1 H6S       0.107000
     29 H2           3.1580    -0.0000     1.1970 ha         1 H6S       0.097000
     30 H3           1.9250    -0.0030     3.3330 ha         1 H6S       0.102000
     31 H4          -0.5400     0.0020     3.3330 ha         1 H6S       0.133000
     32 H5          -2.5590    -0.5750     0.3590 h1         1 H6S       0.017700
     33 H8          -2.6080    -2.3430     4.4580 hc         1 H6S       0.033700
     34 H9          -4.2640    -1.9350     3.9900 hc         1 H6S       0.033700
     35 H10         -4.3760    -4.1590     2.7660 h1         1 H6S       0.020700
     36 H11         -3.0820    -4.9060     1.4590 h1         1 H6S       0.004367
     37 H12         -1.4180    -4.3560     1.7030 h1         1 H6S       0.004367
     38 H13         -1.8300    -6.0600     1.9380 h1         1 H6S       0.004367
     39 H14         -1.8810    -6.1070     4.9790 h1         1 H6S       0.013200
     40 H15         -2.5780    -6.8770     3.5370 h1         1 H6S       0.013200
     41 H16         -4.7650    -6.5150     4.2530 hc         1 H6S       0.015200
     42 H17         -4.0070    -6.4100     5.8670 hc         1 H6S       0.015200
     43 H18         -5.4300    -4.3060     4.9110 hc         1 H6S       0.025700
     44 H19         -3.8920    -4.0120     5.7780 hc         1 H6S       0.025700
     45 H20         -3.1580     1.4270    -0.9780 ha         1 H6S       0.114000
     46 H21         -4.6160     6.9630     0.8410 ha         1 H6S       0.139000
     47 H22         -4.7980     6.0150    -1.4250 h4         1 H6S      -0.038900
     48 C10         -2.8690    -1.9830     2.3550 c3         1 H6S       0.191400
     49 C14         -2.1830    -5.0420     2.0480 c3         1 H6S       0.169100
     50 H6          -1.9290    -2.4670     2.1190 h1         1 H6S      -0.005300
     51 H7          -3.5970    -2.2140     1.5870 h1         1 H6S      -0.005300
@<TRIPOS>BOND
     1     1     2 ar  
     2     1     6 ar  
     3     1    27 1   
     4     2     3 ar  
     5     2    28 1   
     6     3     4 ar  
     7     3    29 1   
     8     4     5 ar  
     9     4    30 1   
    10     5     6 ar  
    11     5    31 1   
    12     6     7 1   
    13     7    13 1   
    14     7    23 1   
    15     7    32 1   
    16     8     9 1   
    17     8    33 1   
    18     8    34 1   
    19     8    48 1   
    20     9    12 1   
    21     9    21 1   
    22     9    35 1   
    23    10    11 1   
    24    10    21 1   
    25    10    39 1   
    26    10    40 1   
    27    11    12 1   
    28    11    41 1   
    29    11    42 1   
    30    12    43 1   
    31    12    44 1   
    32    13    14 2   
    33    13    26 1   
    34    14    15 1   
    35    14    45 1   
    36    15    16 ar  
    37    15    22 ar  
    38    16    17 ar  
    39    16    26 1   
    40    17    18 1   
    41    17    19 ar  
    42    18    24 1   
    43    18    25 1   
    44    19    20 ar  
    45    19    46 1   
    46    20    22 ar  
    47    20    47 1   
    48    21    49 1   
    49    23    48 1   
    50    36    49 1   
    51    37    49 1   
    52    38    49 1   
    53    48    50 1   
    54    48    51 1   
@<TRIPOS>SUBSTRUCTURE
     1 H6S         1 TEMP              0 ****  ****    0 ROOT
