@<TRIPOS>MOLECULE
molecule
   51    54     1     0     0
SMALL
bcc


@<TRIPOS>ATOM
      1 C02          0.0000     0.0000     0.0000 ca         1 H6S       0.039400
      2 C03          1.3840     0.0000     0.0000 ca         1 H6S      -0.130000
      3 C04          2.0740     0.0000     1.1960 ca         1 H6S      -0.126000
      4 C05          1.3830    -0.0000     2.3940 ca         1 H6S      -0.131000
      5 C06          0.0020    -0.0000     2.3940 ca         1 H6S      -0.085000
      6 C07         -0.6910     0.0060     1.1970 ca         1 H6S      -0.094300
      7 C08         -2.1980     0.0060     1.1980 c3         1 H6S       0.267600
      8 C11         -3.3760    -2.4870     3.7080 c3         1 H6S      -0.066400
      9 C12         -3.7130    -3.9760     3.6020 c3         1 H6S       0.160500
     10 C15         -2.6440    -6.0330     4.2130 c3         1 H6S       0.152800
     11 C16         -4.0410    -5.9940     4.8670 c3         1 H6S      -0.108400
     12 C17         -4.3600    -4.4750     4.9180 c3         1 H6S      -0.083400
     13 C18         -2.7000     1.4230     1.0810 cc         1 H6S      -0.095600
     14 C20         -3.1320     1.9680    -0.0400 cd         1 H6S      -0.232800
     15 C21         -3.5690     3.3490     0.0780 ca         1 H6S       0.412100
     16 C22         -3.4380     3.8220     1.3890 ca         1 H6S      -0.112400
     17 C23         -3.8190     5.1470     1.6860 ca         1 H6S      -0.041600
     18 C24         -3.6940     5.6810     3.0580 c          1 H6S       0.878200
     19 C27         -4.3140     5.9400     0.6520 ca         1 H6S      -0.222300
     20 C28         -4.4140     5.4020    -0.6190 ca         1 H6S       0.391200
     21 N13         -2.4780    -4.7750     3.4620 n3         1 H6S      -0.714600
     22 N29         -4.0550     4.1670    -0.8700 nb         1 H6S      -0.702000
     23 O09         -2.6740    -0.5680     2.4170 os         1 H6S      -0.412600
     24 O25         -4.0610     6.9500     3.3230 o          1 H6S      -0.822800
     25 O26         -3.2600     4.9770     3.9480 o          1 H6S      -0.822800
     26 S19         -2.7920     2.5510     2.4190 ss         1 H6S       0.038500
     27 Cl          -0.8680     0.0010    -1.5040 cl         1 H6S      -0.116400
     28 H1           1.9260    -0.0020    -0.9380 ha         1 H6S       0.135000
     29 H2           3.1580    -0.0000     1.1970 ha         1 H6S       0.126000
     30 H3           1.9250    -0.0030     3.3330 ha         1 H6S       0.131000
     31 H4          -0.5400     0.0020     3.3330 ha         1 H6S       0.161000
     32 H5          -2.5590    -0.5750     0.3590 h1         1 H6S       0.055700
     33 H8          -2.6080    -2.3430     4.4580 hc         1 H6S       0.063700
     34 H9          -4.2640    -1.9350     3.9900 hc         1 H6S       0.063700
     35 H10         -4.3760    -4.1590     2.7660 h1         1 H6S       0.036700
     36 H11         -3.0820    -4.9060     1.4590 h1         1 H6S       0.032367
     37 H12         -1.4180    -4.3560     1.7030 h1         1 H6S       0.032367
     38 H13         -1.8300    -6.0600     1.9380 h1         1 H6S       0.032367
     39 H14         -1.8810    -6.1070     4.9790 h1         1 H6S       0.041700
     40 H15         -2.5780    -6.8770     3.5370 h1         1 H6S       0.041700
     41 H16         -4.7650    -6.5150     4.2530 hc         1 H6S       0.044200
     42 H17         -4.0070    -6.4100     5.8670 hc         1 H6S       0.044200
     43 H18         -5.4300    -4.3060     4.9110 hc         1 H6S       0.055700
     44 H19         -3.8920    -4.0120     5.7780 hc         1 H6S       0.055700
     45 H20         -3.1580     1.4270    -0.9780 ha         1 H6S       0.139000
     46 H21         -4.6160     6.9630     0.8410 ha         1 H6S       0.162000
     47 H22         -4.7980     6.0150    -1.4250 h4         1 H6S      -0.000900
     48 C10         -2.8690    -1.9830     2.3550 c3         1 H6S       0.134400
     49 C14         -2.1830    -5.0420     2.0480 c3         1 H6S       0.142100
     50 H6          -1.9290    -2.4670     2.1190 h1         1 H6S       0.024700
     51 H7          -3.5970    -2.2140     1.5870 h1         1 H6S       0.024700
@<TRIPOS>BOND
     1    49    21 1
     2    21    10 1
     3    21     9 1
     4    10    11 1
     5    11    12 1
     6     9     8 1
     7     9    12 1
     8     8    48 1
     9    48    23 1
    10     5     4 ar
    11     5     6 ar
    12    14    13 2
    13    14    15 1
    14     4     3 ar
    15     7    23 1
    16     7     6 1
    17     7    13 1
    18    22    15 ar
    19    22    20 ar
    20     6     1 ar
    21    13    26 1
    22    15    16 ar
    23    20    19 ar
    24     3     2 ar
    25     1     2 ar
    26     1    27 1
    27    16    26 1
    28    16    17 ar
    29    19    17 ar
    30    17    18 1
    31    18    25 1
    32    18    24 1
    33     2    28 1
    34     3    29 1
    35     4    30 1
    36     5    31 1
    37     7    32 1
    38    48    50 1
    39    48    51 1
    40     8    33 1
    41     8    34 1
    42     9    35 1
    43    49    36 1
    44    49    37 1
    45    49    38 1
    46    10    39 1
    47    10    40 1
    48    11    41 1
    49    11    42 1
    50    12    43 1
    51    12    44 1
    52    14    45 1
    53    19    46 1
    54    20    47 1
@<TRIPOS>SUBSTRUCTURE
     1 H6S         1 TEMP              0 ****  ****    0 ROOT
