@<TRIPOS>MOLECULE
molecule
   51    54     1     0     0
SMALL
bcc


@<TRIPOS>ATOM
      1 C02          0.0000     0.0000     0.0000 ca         1 H6T       0.039400
      2 C03          1.3830     0.0000     0.0000 ca         1 H6T      -0.129000
      3 C04          2.0750     0.0000     1.1970 ca         1 H6T      -0.127000
      4 C05          1.3830     0.0000     2.3940 ca         1 H6T      -0.133000
      5 C06          0.0010    -0.0000     2.3960 ca         1 H6T      -0.088000
      6 C07         -0.6920     0.0010     1.1980 ca         1 H6T      -0.093300
      7 C08         -2.1990     0.0020     1.1990 c3         1 H6T       0.267600
      8 C11         -3.3730     2.4850     3.7200 c3         1 H6T      -0.066400
      9 C12         -3.4510     4.0130     3.7050 c3         1 H6T       0.160500
     10 C15         -5.1800     5.6490     3.4290 c3         1 H6T       0.152800
     11 C16         -4.4540     5.9240     4.7620 c3         1 H6T      -0.107400
     12 C17         -3.8280     4.5480     5.1090 c3         1 H6T      -0.084400
     13 C18         -2.7010    -1.4140     1.0760 cc         1 H6T      -0.095600
     14 C20         -3.0350    -1.9870    -0.0640 cd         1 H6T      -0.233800
     15 C21         -3.4950    -3.3610     0.0510 ca         1 H6T       0.413100
     16 C22         -3.4880    -3.7970     1.3810 ca         1 H6T      -0.113400
     17 C23         -3.9060    -5.1110     1.6790 ca         1 H6T      -0.041600
     18 C24         -3.9120    -5.6080     3.0710 c          1 H6T       0.879200
     19 C27         -4.3130    -5.9310     0.6250 ca         1 H6T      -0.222300
     20 C28         -4.2920    -5.4270    -0.6640 ca         1 H6T       0.391200
     21 N13         -4.5470     4.4640     2.8220 n3         1 H6T      -0.712600
     22 N29         -3.9000    -4.2020    -0.9140 nb         1 H6T      -0.702000
     23 O09         -2.6740     0.5710     2.4210 os         1 H6T      -0.411600
     24 O25         -3.5550    -4.8810     3.9770 o          1 H6T      -0.823300
     25 O26         -4.3150    -6.8660     3.3360 o          1 H6T      -0.823300
     26 S19         -2.9100    -2.5090     2.4290 ss         1 H6T       0.039500
     27 Cl          -0.8680     0.0080    -1.5030 cl         1 H6T      -0.114400
     28 H1           1.9250    -0.0000    -0.9380 ha         1 H6T       0.135000
     29 H2           3.1580     0.0000     1.1980 ha         1 H6T       0.126000
     30 H3           1.9250    -0.0000     3.3320 ha         1 H6T       0.129000
     31 H4          -0.5400     0.0000     3.3340 ha         1 H6T       0.160000
     32 H5          -2.5600     0.5870     0.3630 h1         1 H6T       0.056700
     33 H8          -4.3580     2.0750     3.9100 hc         1 H6T       0.064200
     34 H9          -2.6930     2.1650     4.5000 hc         1 H6T       0.064200
     35 H10         -2.5090     4.4410     3.3820 h1         1 H6T       0.033700
     36 H11         -2.9760     4.9290     1.5150 h1         1 H6T       0.032700
     37 H12         -4.2610     3.9360     0.8140 h1         1 H6T       0.032700
     38 H13         -4.5330     5.6600     1.1010 h1         1 H6T       0.032700
     39 H14         -6.2290     5.4500     3.6150 h1         1 H6T       0.042700
     40 H15         -5.0730     6.5020     2.7700 h1         1 H6T       0.042700
     41 H16         -3.6820     6.6710     4.6290 hc         1 H6T       0.044200
     42 H17         -5.1610     6.2240     5.5260 hc         1 H6T       0.044200
     43 H18         -2.9450     4.6700     5.7250 hc         1 H6T       0.055200
     44 H19         -4.5560     3.9010     5.5850 hc         1 H6T       0.055200
     45 H20         -2.9710    -1.4720    -1.0150 ha         1 H6T       0.140000
     46 H21         -4.6410    -6.9460     0.8130 ha         1 H6T       0.162000
     47 H22         -4.6070    -6.0590    -1.4840 h4         1 H6T      -0.000900
     48 C10         -2.8670     1.9860     2.3660 c3         1 H6T       0.134400
     49 C14         -4.0460     4.7670     1.4740 c3         1 H6T       0.143100
     50 H6          -3.5950     2.2220     1.5990 h1         1 H6T       0.024700
     51 H7          -1.9260     2.4700     2.1320 h1         1 H6T       0.024700
@<TRIPOS>BOND
     1    10    21 1
     2    10    11 1
     3    49    21 1
     4    21     9 1
     5    11    12 1
     6     9    12 1
     7     9     8 1
     8     8    48 1
     9    48    23 1
    10    23     7 1
    11    27     1 1
    12    14    15 1
    13    14    13 2
    14    22    15 ar
    15    22    20 ar
    16     7    13 1
    17     7     6 1
    18     1     6 ar
    19     1     2 ar
    20    15    16 ar
    21    13    26 1
    22    20    19 ar
    23     6     5 ar
    24     2     3 ar
    25     5     4 ar
    26    16    26 1
    27    16    17 ar
    28    19    17 ar
    29     3     4 ar
    30    17    18 1
    31    18    24 1
    32    18    25 1
    33     2    28 1
    34     3    29 1
    35     4    30 1
    36     5    31 1
    37     7    32 1
    38    48    50 1
    39    48    51 1
    40     8    33 1
    41     8    34 1
    42     9    35 1
    43    49    36 1
    44    49    37 1
    45    49    38 1
    46    10    39 1
    47    10    40 1
    48    11    41 1
    49    11    42 1
    50    12    43 1
    51    12    44 1
    52    14    45 1
    53    19    46 1
    54    20    47 1
@<TRIPOS>SUBSTRUCTURE
     1 H6T         1 TEMP              0 ****  ****    0 ROOT
