@<TRIPOS>MOLECULE
H6V
   53    56     1     0     0
SMALL
bcc


@<TRIPOS>ATOM
      1 C02          0.0000     0.0000     0.0000 c          1 H6V       0.965200
      2 C04          1.4770     0.0000     0.0000 ca         1 H6V      -0.023600
      3 C05          2.2010     0.0000     1.2110 ca         1 H6V      -0.035400
      4 C06          3.6000    -0.0010     1.1730 ca         1 H6V       0.359100
      5 C07          4.1720    -0.0020     2.5100 cc         1 H6V      -0.211800
      6 C08          3.2920    -0.0010     3.4920 cd         1 H6V      -0.046600
      7 C09          3.6530    -0.0020     4.9560 c3         1 H6V       0.326600
      8 C10          3.5340     1.3970     5.5030 ca         1 H6V      -0.116300
      9 C11          2.3090     1.8660     5.9410 ca         1 H6V      -0.062000
     10 C12          2.1950     3.1480     6.4440 ca         1 H6V      -0.104000
     11 C13          3.3070     3.9670     6.5110 ca         1 H6V      -0.117000
     12 C14          4.5390     3.4990     6.0720 ca         1 H6V       0.013600
     13 C20          4.6500     2.2070     5.5710 ca         1 H6V      -0.103000
     14 C23          2.3100    -2.3780     7.4950 c3         1 H6V       0.148800
     15 C25          0.8110    -4.2390     7.1080 c3         1 H6V       0.150300
     16 C26          0.3930    -5.2950     6.0810 c3         1 H6V      -0.025400
     17 C27          1.5670    -6.2430     5.8250 c3         1 H6V      -0.026400
     18 C28          2.7720    -5.4320     5.3410 c3         1 H6V      -0.025400
     19 C29          3.1220    -4.3730     6.3890 c3         1 H6V       0.150300
     20 C32          3.5770    -0.0070    -1.1530 ca         1 H6V       0.346200
     21 C33          2.1930    -0.0060    -1.1980 ca         1 H6V      -0.160300
     22 N15          5.6640     4.3240     6.1370 nv         1 H6V      -0.560200
     23 N24          1.9670    -3.4900     6.5990 n3         1 H6V      -0.511600
     24 N31          4.2260    -0.0010    -0.0150 nb         1 H6V      -0.599000
     25 O01         -0.6740    -0.0060    -1.1680 o          1 H6V      -0.864800
     26 O03         -0.6070     0.0000     1.0510 o          1 H6V      -0.864800
     27 O21          2.7640    -0.8680     5.6650 os         1 H6V      -0.371600
     28 S30          1.6490    -0.0010     2.8800 ss         1 H6V      -0.123500
     29 H1           5.2410    -0.0030     2.6860 ha         1 H6V       0.107000
     30 H2           4.6710    -0.3520     5.0760 h1         1 H6V       0.006700
     31 H3           1.4360     1.2270     5.8890 ha         1 H6V       0.131000
     32 H4           1.2340     3.5120     6.7860 ha         1 H6V       0.100000
     33 H5           3.2170     4.9720     6.9030 ha         1 H6V       0.099000
     34 H6           5.6090     1.8390     5.2280 ha         1 H6V       0.106000
     35 H7           4.2010    -2.0730     6.5200 h1         1 H6V      -0.008800
     36 H8           3.6650    -0.7100     7.5120 h1         1 H6V      -0.008800
     37 H9           2.7150    -2.7720     8.4200 h1         1 H6V       0.010700
     38 H10          1.4200    -1.7990     7.7090 h1         1 H6V       0.010700
     39 H13          0.1150    -4.8070     5.1550 hc         1 H6V       0.023200
     40 H14         -0.4480    -5.8590     6.4660 hc         1 H6V       0.023200
     41 H15          1.8230    -6.7570     6.7440 hc         1 H6V       0.006200
     42 H16          1.2890    -6.9640     5.0660 hc         1 H6V       0.006200
     43 H17          3.6190    -6.0940     5.2010 hc         1 H6V       0.023200
     44 H18          2.5270    -4.9460     4.4050 hc         1 H6V       0.023200
     45 H19          3.9640    -3.7870     6.0410 h1         1 H6V       0.004200
     46 H20          3.3760    -4.8600     7.3220 h1         1 H6V       0.004200
     47 H21          4.2420    -0.0100    -2.0080 h4         1 H6V      -0.036900
     48 H22          1.8390    -0.0090    -2.2220 ha         1 H6V       0.125000
     49 H23          6.2410     4.3200     6.9550 hn         1 H6V       0.265800
     50 H24          5.9000     4.9120     5.3620 hn         1 H6V       0.265800
     51 C22          3.3460    -1.4790     6.8180 c3         1 H6V       0.197400
     52 H11          1.0800    -4.7280     8.0370 h1         1 H6V       0.004200
     53 H12         -0.0130    -3.5570     7.2780 h1         1 H6V       0.004200
@<TRIPOS>BOND
     1     1     2 1   
     2     1    25 1   
     3     1    26 1   
     4     2     3 ar  
     5     2    21 ar  
     6     3     4 ar  
     7     3    28 1   
     8     4     5 1   
     9     4    24 ar  
    10     5     6 2   
    11     5    29 1   
    12     6     7 1   
    13     6    28 1   
    14     7     8 1   
    15     7    27 1   
    16     7    30 1   
    17     8     9 ar  
    18     8    13 ar  
    19     9    10 ar  
    20     9    31 1   
    21    10    11 ar  
    22    10    32 1   
    23    11    12 ar  
    24    11    33 1   
    25    12    13 ar  
    26    12    22 1   
    27    13    34 1   
    28    14    23 1   
    29    14    37 1   
    30    14    38 1   
    31    14    51 1   
    32    15    16 1   
    33    15    23 1   
    34    15    52 1   
    35    15    53 1   
    36    16    17 1   
    37    16    39 1   
    38    16    40 1   
    39    17    18 1   
    40    17    41 1   
    41    17    42 1   
    42    18    19 1   
    43    18    43 1   
    44    18    44 1   
    45    19    23 1   
    46    19    45 1   
    47    19    46 1   
    48    20    21 ar  
    49    20    24 ar  
    50    20    47 1   
    51    21    48 1   
    52    22    49 1   
    53    22    50 1   
    54    27    51 1   
    55    35    51 1   
    56    36    51 1   
@<TRIPOS>SUBSTRUCTURE
     1 H6V         1 TEMP              0 ****  ****    0 ROOT
