@<TRIPOS>MOLECULE
molecule
   53    56     1     0     0
SMALL
bcc


@<TRIPOS>ATOM
      1 C02          0.0000     0.0000     0.0000 c          1 H6V       0.879200
      2 C04          1.4770     0.0000     0.0000 ca         1 H6V      -0.030600
      3 C05          2.2010     0.0000     1.2110 ca         1 H6V      -0.115400
      4 C06          3.6000    -0.0010     1.1730 ca         1 H6V       0.411100
      5 C07          4.1720    -0.0020     2.5100 cc         1 H6V      -0.244800
      6 C08          3.2920    -0.0010     3.4920 cd         1 H6V      -0.087600
      7 C09          3.6530    -0.0020     4.9560 c3         1 H6V       0.265600
      8 C10          3.5340     1.3970     5.5030 ca         1 H6V      -0.101300
      9 C11          2.3090     1.8660     5.9410 ca         1 H6V      -0.099000
     10 C12          2.1950     3.1480     6.4440 ca         1 H6V      -0.131000
     11 C13          3.3070     3.9670     6.5110 ca         1 H6V      -0.147000
     12 C14          4.5390     3.4990     6.0720 ca         1 H6V       0.150600
     13 C20          4.6500     2.2070     5.5710 ca         1 H6V      -0.134000
     14 C23          2.3100    -2.3780     7.4950 c3         1 H6V       0.166800
     15 C25          0.8110    -4.2390     7.1080 c3         1 H6V       0.165300
     16 C26          0.3930    -5.2950     6.0810 c3         1 H6V      -0.077900
     17 C27          1.5670    -6.2430     5.8250 c3         1 H6V      -0.081400
     18 C28          2.7720    -5.4320     5.3410 c3         1 H6V      -0.077900
     19 C29          3.1220    -4.3730     6.3890 c3         1 H6V       0.165300
     20 C32          3.5770    -0.0070    -1.1530 ca         1 H6V       0.376200
     21 C33          2.1930    -0.0060    -1.1980 ca         1 H6V      -0.201300
     22 N15          5.6640     4.3240     6.1370 nv         1 H6V      -0.991200
     23 N24          1.9670    -3.4900     6.5990 n3         1 H6V      -0.705600
     24 N31          4.2260    -0.0010    -0.0150 nb         1 H6V      -0.711000
     25 O01         -0.6740    -0.0060    -1.1680 o          1 H6V      -0.822800
     26 O03         -0.6070     0.0000     1.0510 o          1 H6V      -0.822800
     27 O21          2.7640    -0.8680     5.6650 os         1 H6V      -0.391600
     28 S30          1.6490    -0.0010     2.8800 ss         1 H6V       0.052500
     29 H1           5.2410    -0.0030     2.6860 ha         1 H6V       0.132000
     30 H2           4.6710    -0.3520     5.0760 h1         1 H6V       0.041700
     31 H3           1.4360     1.2270     5.8890 ha         1 H6V       0.154000
     32 H4           1.2340     3.5120     6.7860 ha         1 H6V       0.126000
     33 H5           3.2170     4.9720     6.9030 ha         1 H6V       0.125000
     34 H6           5.6090     1.8390     5.2280 ha         1 H6V       0.131000
     35 H7           4.2010    -2.0730     6.5200 h1         1 H6V       0.021200
     36 H8           3.6650    -0.7100     7.5120 h1         1 H6V       0.021200
     37 H9           2.7150    -2.7720     8.4200 h1         1 H6V       0.037700
     38 H10          1.4200    -1.7990     7.7090 h1         1 H6V       0.037700
     39 H13          0.1150    -4.8070     5.1550 hc         1 H6V       0.052450
     40 H14         -0.4480    -5.8590     6.4660 hc         1 H6V       0.052450
     41 H15          1.8230    -6.7570     6.7440 hc         1 H6V       0.032700
     42 H16          1.2890    -6.9640     5.0660 hc         1 H6V       0.032700
     43 H17          3.6190    -6.0940     5.2010 hc         1 H6V       0.052450
     44 H18          2.5270    -4.9460     4.4050 hc         1 H6V       0.052450
     45 H19          3.9640    -3.7870     6.0410 h1         1 H6V       0.027200
     46 H20          3.3760    -4.8600     7.3220 h1         1 H6V       0.027200
     47 H21          4.2420    -0.0100    -2.0080 h4         1 H6V      -0.000900
     48 H22          1.8390    -0.0090    -2.2220 ha         1 H6V       0.150000
     49 H23          6.2410     4.3200     6.9550 hn         1 H6V       0.420800
     50 H24          5.9000     4.9120     5.3620 hn         1 H6V       0.420800
     51 C22          3.3460    -1.4790     6.8180 c3         1 H6V       0.139400
     52 H11          1.0800    -4.7280     8.0370 h1         1 H6V       0.027200
     53 H12         -0.0130    -3.5570     7.2780 h1         1 H6V       0.027200
@<TRIPOS>BOND
     1    17    16 1
     2    17    18 1
     3    16    15 1
     4    18    19 1
     5    15    23 1
     6    19    23 1
     7    23    14 1
     8    51    14 1
     9    51    27 1
    10     5     4 1
    11     5     6 2
    12    24     4 ar
    13    24    20 ar
    14     7    27 1
    15     7     6 1
    16     7     8 1
    17     4     3 ar
    18     6    28 1
    19    13     8 ar
    20    13    12 ar
    21    20    21 ar
    22    22    12 1
    23     8     9 ar
    24    12    11 ar
    25     3    28 1
    26     3     2 ar
    27     9    10 ar
    28    21     2 ar
    29    11    10 ar
    30     2     1 1
    31     1    26 1
    32     1    25 1
    33     5    29 1
    34     7    30 1
    35     9    31 1
    36    10    32 1
    37    11    33 1
    38    13    34 1
    39    51    35 1
    40    51    36 1
    41    14    37 1
    42    14    38 1
    43    15    52 1
    44    15    53 1
    45    16    39 1
    46    16    40 1
    47    17    41 1
    48    17    42 1
    49    18    43 1
    50    18    44 1
    51    19    45 1
    52    19    46 1
    53    20    47 1
    54    21    48 1
    55    22    49 1
    56    22    50 1
@<TRIPOS>SUBSTRUCTURE
     1 H6V         1 TEMP              0 ****  ****    0 ROOT
