@<TRIPOS>MOLECULE
molecule
   44    46     1     0     0
SMALL
bcc


@<TRIPOS>ATOM
      1 PG           0.0000     0.0000     0.0000 p5         1 H6Y       1.338900
      2 O1G          1.4800     0.0000     0.0000 o          1 H6Y      -0.842833
      3 O2G         -0.5370     0.0000     1.5170 o          1 H6Y      -0.842833
      4 O3G         -0.5360     1.3150    -0.7600 o          1 H6Y      -0.842833
      5 PB          -0.0730    -2.1120    -2.0800 p5         1 H6Y       1.519800
      6 O1B          1.3990    -2.2690    -2.0700 o          1 H6Y      -0.872500
      7 O2B         -0.5150    -1.2850    -3.3890 o          1 H6Y      -0.872500
      8 O3B         -0.5370    -1.3140    -0.7600 os         1 H6Y      -0.735800
      9 PA          -0.4440    -4.9470    -2.8590 p5         1 H6Y       1.449800
     10 O1A         -0.0100    -4.6600    -4.2450 o          1 H6Y      -0.859000
     11 O2A          0.7300    -5.7240    -2.0790 o          1 H6Y      -0.859000
     12 O3A         -0.7670    -3.5630    -2.1020 os         1 H6Y      -0.724800
     13 O5'         -1.7670    -5.8640    -2.8880 os         1 H6Y      -0.585200
     14 C5'         -1.8330    -7.1120    -3.5820 c3         1 H6Y       0.235400
     15 C4'         -3.2260    -7.7200    -3.4070 c3         1 H6Y       0.120100
     16 O4'         -4.2020    -6.9020    -4.0730 os         1 H6Y      -0.348600
     17 C3'         -3.2750    -9.1140    -4.0590 c3         1 H6Y       0.083100
     18 O3'         -3.5930   -10.1110    -3.0860 oh         1 H6Y      -0.593800
     19 C2'         -4.4060    -9.0020    -5.1110 c3         1 H6Y       0.073100
     20 O2'         -5.2070   -10.1860    -5.1260 oh         1 H6Y      -0.590800
     21 C1'         -5.2180    -7.7920    -4.5850 c3         1 H6Y       0.332500
     22 N9          -5.9580    -7.1540    -5.6760 n          1 H6Y      -0.422300
     23 C8          -5.4140    -6.6030    -6.7790 c          1 H6Y       0.797500
     24 O8          -4.2240    -6.5550    -7.0240 o          1 H6Y      -0.636500
     25 N7          -6.3920    -6.1120    -7.5670 ns         1 H6Y      -0.441100
     26 C5          -7.6130    -6.3590    -6.9460 ca         1 H6Y      -0.364000
     27 C6          -8.9440    -6.0940    -7.2670 ca         1 H6Y       0.644200
     28 N6          -9.2710    -5.4410    -8.4460 nv         1 H6Y      -1.042500
     29 N1          -9.8930    -6.4830    -6.4180 nb         1 H6Y      -0.795000
     30 C2          -9.5860    -7.1050    -5.2960 ca         1 H6Y       0.596900
     31 C4          -7.3340    -7.0240    -5.7510 ca         1 H6Y       0.570200
     32 N3          -8.3410    -7.3730    -4.9580 nb         1 H6Y      -0.790000
     33 H5'1        -1.6390    -6.9500    -4.6360 h1         1 H6Y       0.028200
     34 H5'2        -1.0900    -7.7890    -3.1790 h1         1 H6Y       0.028200
     35 H4'         -3.4690    -7.7990    -2.3550 h1         1 H6Y       0.073700
     36 H3'         -2.3320    -9.3370    -4.5440 h1         1 H6Y       0.048700
     37 H1'         -5.8870    -8.1000    -3.7900 h2         1 H6Y       0.096700
     38 HO3'        -2.8920   -10.7400    -3.0390 ho         1 H6Y       0.384000
     39 H2'         -3.9970    -8.7920    -6.0920 h1         1 H6Y       0.073700
     40 HO2'        -4.9670   -10.7190    -5.8660 ho         1 H6Y       0.377000
     41 H7          -6.2610    -5.6370    -8.4380 hn         1 H6Y       0.336500
     42 H61N       -10.0390    -4.8000    -8.4660 hn         1 H6Y       0.413800
     43 H62N        -8.7550    -5.6300    -9.2830 hn         1 H6Y       0.413800
     44 H2         -10.3850    -7.4060    -4.6300 h5         1 H6Y       0.026100
@<TRIPOS>BOND
     1     1     2 1
     2     1     3 1
     3     1     4 1
     4     1     8 1
     5     5     6 1
     6     5     7 1
     7     5     8 1
     8     5    12 1
     9     9    10 1
    10     9    11 1
    11     9    12 1
    12     9    13 1
    13    13    14 1
    14    14    15 1
    15    15    16 1
    16    15    17 1
    17    16    21 1
    18    17    18 1
    19    17    19 1
    20    19    20 1
    21    19    21 1
    22    21    22 1
    23    22    23 1
    24    22    31 1
    25    23    24 2
    26    23    25 1
    27    25    26 1
    28    26    27 ar
    29    26    31 ar
    30    32    31 ar
    31    27    28 1
    32    27    29 ar
    33    29    30 ar
    34    30    32 ar
    35    14    33 1
    36    14    34 1
    37    15    35 1
    38    17    36 1
    39    21    37 1
    40    18    38 1
    41    19    39 1
    42    20    40 1
    43    25    41 1
    44    28    42 1
    45    28    43 1
    46    30    44 1
@<TRIPOS>SUBSTRUCTURE
     1 H6Y         1 TEMP              0 ****  ****    0 ROOT
