@<TRIPOS>MOLECULE
molecule
   39    39     1     0     0
SMALL
bcc


@<TRIPOS>ATOM
      1 P1           0.0000     0.0000     0.0000 p5         1 H6Z       1.352800
      2 C8           5.8210    -0.1770     3.7410 c3         1 H6Z       0.146400
      3 C5           3.2720     1.2510     1.2340 c3         1 H6Z       0.117100
      4 C6           4.1570     1.2010     2.4830 c3         1 H6Z       0.095100
      5 O6           1.6100     0.0000     0.0000 os         1 H6Z      -0.579200
      6 C2          -1.9220     0.2660    -1.8370 c3         1 H6Z       0.257100
      7 C4           2.3880     0.0000     1.1980 c3         1 H6Z       0.221100
      8 C1          -2.3510    -0.9030    -2.7270 c3         1 H6Z       0.316900
      9 O2          -1.5770    -0.8980    -3.9280 oh         1 H6Z      -0.612800
     10 C3          -2.1460     1.5830    -2.5830 c3         1 H6Z      -0.096100
     11 O3          -0.5370    -1.3760     0.6420 o          1 H6Z      -0.820500
     12 O4          -0.4930     1.1430     0.8000 o          1 H6Z      -0.820500
     13 O5          -0.5370     0.1320    -1.5130 os         1 H6Z      -0.589200
     14 O8           5.0390     2.3260     2.4890 oh         1 H6Z      -0.616800
     15 C7           4.9790    -0.0910     2.4670 c3         1 H6Z       0.150100
     16 OX1          4.0970    -1.2140     2.4020 os         1 H6Z      -0.425600
     17 C9           3.2770    -1.2450     1.2310 c3         1 H6Z       0.316900
     18 OX2          4.1090    -1.2680     0.0680 oh         1 H6Z      -0.616800
     19 H1           5.1680    -0.2640     4.6000 h1         1 H6Z       0.027700
     20 H2           6.4250     0.7170     3.8350 h1         1 H6Z       0.027700
     21 H3           3.8980     1.2750     0.3500 h1         1 H6Z       0.062700
     22 H4           3.5330     1.2190     3.3680 h1         1 H6Z       0.052700
     23 H5          -2.5090     0.2620    -0.9270 h1         1 H6Z       0.062700
     24 H6           1.7330    -0.0030     2.0600 h1         1 H6Z       0.077700
     25 H7          -4.1570    -1.6110    -2.9860 ho         1 H6Z       0.385500
     26 H8          -1.5380    -1.7720    -4.2810 ho         1 H6Z       0.385500
     27 H9          -1.1990     2.0940    -2.7060 hc         1 H6Z       0.038700
     28 H10         -2.5740     1.3780    -3.5570 hc         1 H6Z       0.038700
     29 H11         -2.8230     2.2090    -2.0150 hc         1 H6Z       0.038700
     30 H14          4.7170     2.9740     3.0940 ho         1 H6Z       0.403000
     31 H15          5.6280    -0.0930     1.5990 h1         1 H6Z       0.073700
     32 H16          7.2250    -1.3500     4.4360 ho         1 H6Z       0.389000
     33 H17          2.6540    -2.1310     1.2530 h2         1 H6Z       0.094700
     34 H18          4.1150    -2.1380    -0.2960 ho         1 H6Z       0.403000
     35 H19         -2.1920    -1.8360    -2.1990 h2         1 H6Z       0.036700
     36 O7           2.4490     2.4180     1.2760 oh         1 H6Z      -0.575800
     37 H13          2.7620     3.0460     0.6460 ho         1 H6Z       0.396000
     38 O9           6.6730    -1.3230     3.6720 oh         1 H6Z      -0.601800
     39 O1          -3.7360    -0.7700    -3.0520 oh         1 H6Z      -0.612800
@<TRIPOS>BOND
     1    38     2 1
     2     2    15 1
     3     4    14 1
     4     4    15 1
     5     4     3 1
     6    15    16 1
     7    16    17 1
     8    36     3 1
     9     3     7 1
    10     7    17 1
    11     7     5 1
    12    17    18 1
    13    12     1 1
    14    13     1 1
    15    13     6 1
    16     5     1 1
    17     1    11 1
    18    10     6 1
    19     9     8 1
    20     6     8 1
    21     8    39 1
    22     2    19 1
    23     2    20 1
    24     3    21 1
    25     4    22 1
    26     6    23 1
    27     7    24 1
    28    39    25 1
    29     9    26 1
    30    10    27 1
    31    10    28 1
    32    10    29 1
    33    36    37 1
    34    14    30 1
    35    15    31 1
    36    38    32 1
    37    17    33 1
    38    18    34 1
    39     8    35 1
@<TRIPOS>SUBSTRUCTURE
     1 H6Z         1 TEMP              0 ****  ****    0 ROOT
