@<TRIPOS>MOLECULE
H70
   21    22     1     0     0
SMALL
bcc


@<TRIPOS>ATOM
      1 CH         -0.0260   -0.4410    0.1010 ca        1 H70     -0.063600
      2 CG          2.0970    0.0990    1.1850 ca        1 H70     -0.040000
      3 CD1         3.5510    0.1420    1.1990 cc        1 H70     -0.009300
      4 CD2         1.3830    0.6200    2.2700 ca        1 H70     -0.062000
      5 CE2        -0.0140    0.6240    2.2620 ca        1 H70     -0.011600
      6 CR          1.3820   -0.4560    0.0990 ca        1 H70      0.146100
      7 O           2.1190   -1.0170   -0.9150 oh        1 H70     -0.502100
      8 C3         -0.7250    0.1030    1.1790 ca        1 H70     -0.072000
      9 C7          5.6820   -0.5910    0.9350 cc        1 H70     -0.045200
     10 C8          5.7570    0.7260    1.4350 cd        1 H70     -0.054900
     11 C9          4.4080    1.1940    1.5990 cd        1 H70     -0.077900
     12 N11         4.3420   -0.9380    0.8120 na        1 H70     -0.122100
     13 BR1         3.9540    2.8710    2.1800 br        1 H70     -0.024100
     14 BR2         7.2840    1.6590    1.8050 br        1 H70     -0.012100
     15 CL1        -0.8590    1.2680    3.5860 cl        1 H70     -0.071400
     16 BR3         7.0660   -1.7300    0.5130 br        1 H70     -0.005100
     17 CL2        -0.9030   -1.0790   -1.2100 cl        1 H70     -0.077400
     18 H3         -1.8270    0.1160    1.1750 ha        1 H70      0.167000
     19 HD2         1.9320    1.0290    3.1360 ha        1 H70      0.172000
     20 H11         3.9920   -1.7580    0.3780 hn        1 H70      0.322700
     21 H           1.5270   -1.2020   -1.6630 ho        1 H70      0.442000
@<TRIPOS>BOND
     1    1    6 ar  
     2    1    8 ar  
     3    1   17 1   
     4    2    3 1   
     5    2    4 ar  
     6    2    6 ar  
     7    3   11 2   
     8    3   12 1   
     9    4    5 ar  
    10    4   19 1   
    11    5    8 ar  
    12    5   15 1   
    13    6    7 1   
    14    7   21 1   
    15    8   18 1   
    16    9   10 2   
    17    9   12 1   
    18    9   16 1   
    19   10   11 1   
    20   10   14 1   
    21   11   13 1   
    22   12   20 1   
@<TRIPOS>SUBSTRUCTURE
     1 H70         1 TEMP              0 ****  ****    0 ROOT
