@<TRIPOS>MOLECULE
molecule
   21    22     1     0     0
SMALL
bcc


@<TRIPOS>ATOM
      1 CH           0.0000     0.0000     0.0000 ca         1 H70      -0.029600
      2 CG           2.0810     0.0000     1.2150 ca         1 H70      -0.040000
      3 CD1          3.5590     0.0020     1.2250 cc         1 H70      -0.023300
      4 CD2          1.3710    -0.0000     2.4170 ca         1 H70      -0.082000
      5 CE2         -0.0090    -0.0000     2.4020 ca         1 H70       0.010400
      6 CR           1.3860     0.0000     0.0000 ca         1 H70       0.159100
      7 O            2.0680     0.0000    -1.1760 oh         1 H70      -0.483100
      8 C3          -0.6930    -0.0010     1.1970 ca         1 H70      -0.082000
      9 C7           5.6670    -0.6290     1.5400 cc         1 H70      -0.024200
     10 C8           5.6940     0.5940     0.9650 cd         1 H70      -0.038900
     11 C9           4.3640     1.0010     0.7650 cd         1 H70      -0.037900
     12 N11          4.3640    -1.0010     1.7060 na         1 H70      -0.133100
     13 Br1          3.7950     2.6330    -0.0010 br         1 H70      -0.035100
     14 Br2          7.2430     1.5800     0.5120 br         1 H70      -0.036100
     15 Cl1         -0.8910    -0.0010     3.8960 cl         1 H70      -0.087400
     16 Br3          7.1790    -1.6540     2.0300 br         1 H70      -0.021100
     17 Cl2         -0.8660     0.0070    -1.5040 cl         1 H70      -0.080400
     18 H3          -1.7760    -0.0010     1.1920 ha         1 H70       0.163000
     19 HD2          1.9030     0.0000     3.3600 ha         1 H70       0.158000
     20 H11          4.0480    -1.8610     2.1080 hn         1 H70       0.314700
     21 H            1.7910    -0.7330    -1.7000 ho         1 H70       0.430000
@<TRIPOS>BOND
     1     1     6 ar
     2     1     8 ar
     3     1    17 1
     4     2     3 1
     5     2     4 ar
     6     2     6 ar
     7     3    11 2
     8     3    12 1
     9     4     5 ar
    10     5     8 ar
    11     5    15 1
    12     6     7 1
    13     9    10 2
    14     9    12 1
    15     9    16 1
    16    10    11 1
    17    10    14 1
    18    11    13 1
    19     8    18 1
    20     4    19 1
    21    12    20 1
    22     7    21 1
@<TRIPOS>SUBSTRUCTURE
     1 H70         1 TEMP              0 ****  ****    0 ROOT
