@<TRIPOS>MOLECULE
molecule
   49    52     1     0     0
SMALL
bcc


@<TRIPOS>ATOM
      1 C96          0.0000     0.0000     0.0000 c3         1 H71      -0.091100
      2 C95          1.5300     0.0000     0.0000 c3         1 H71       0.147500
      3 C97          2.0390     0.0000     1.4430 c3         1 H71      -0.091100
      4 N94          2.0200    -1.2000    -0.6920 n7         1 H71      -0.793200
      5 C93          3.3620    -0.8790    -1.1940 c3         1 H71       0.147800
      6 C92          3.9350    -2.0910    -1.9300 c3         1 H71      -0.108400
      7 C91          5.3340    -1.7580    -2.4520 c3         1 H71       0.048300
      8 N9           5.8820    -2.9200    -3.1570 na         1 H71      -0.228000
      9 C4           6.6330    -3.9300    -2.6020 ca         1 H71       0.463800
     10 N3           7.0730    -4.2030    -1.3790 nb         1 H71      -0.772000
     11 C2           7.7880    -5.2860    -1.1490 ca         1 H71       0.719900
     12 N1           8.0950    -6.1460    -2.1020 nb         1 H71      -0.801000
     13 C6           7.6930    -5.9590    -3.3550 ca         1 H71       0.778200
     14 N6           8.0210    -6.8670    -4.3480 nv         1 H71      -1.029500
     15 C5           6.9290    -4.8180    -3.6490 ca         1 H71      -0.175200
     16 N7           6.3650    -4.3160    -4.7760 nc         1 H71      -0.580100
     17 C8           5.7460    -3.1960    -4.4910 cd         1 H71       0.420700
     18 S            4.8720    -2.1970    -5.6490 ss         1 H71      -0.102100
     19 C1'          5.2450    -3.0600    -7.1400 ca         1 H71       0.016900
     20 C6'          4.2880    -3.8780    -7.7270 ca         1 H71      -0.054000
     21 C5'          4.5810    -4.5560    -8.8980 ca         1 H71       0.048100
     22 O3'          3.8350    -5.4060    -9.6630 os         1 H71      -0.321900
     23 C'2          4.7780    -6.1030   -10.4980 c3         1 H71       0.331200
     24 O1'          5.8760    -5.1790   -10.6180 os         1 H71      -0.321900
     25 C4'          5.8380    -4.4160    -9.4850 ca         1 H71       0.080100
     26 C3'          6.7890    -3.6000    -8.8970 ca         1 H71      -0.101000
     27 C2'          6.4930    -2.9180    -7.7310 ca         1 H71       0.111900
     28 I            7.9360    -1.6850    -6.8460 i          1 H71      -0.129900
     29 H961        -0.3610    -0.9290     0.4230 hc         1 H71       0.039700
     30 H962        -0.3610     0.0980    -1.0170 hc         1 H71       0.039700
     31 H963        -0.3610     0.8310     0.5930 hc         1 H71       0.039700
     32 H95          1.8920     0.8840    -0.5110 h1         1 H71       0.024700
     33 H971         1.4040     0.6330     2.0500 hc         1 H71       0.039700
     34 H972         2.0200    -1.0110     1.8320 hc         1 H71       0.039700
     35 H973         3.0540     0.3780     1.4670 hc         1 H71       0.039700
     36 HN94         1.4170    -1.4100    -1.4630 hn         1 H71       0.351800
     37 H931         3.3020    -0.0390    -1.8750 h1         1 H71       0.035200
     38 H932         4.0070    -0.6240    -0.3620 h1         1 H71       0.035200
     39 H921         3.9950    -2.9320    -1.2490 hc         1 H71       0.064700
     40 H922         3.2910    -2.3470    -2.7620 hc         1 H71       0.064700
     41 H911         5.9790    -1.5030    -1.6190 h1         1 H71       0.072200
     42 H912         5.2740    -0.9170    -3.1320 h1         1 H71       0.072200
     43 H2           8.1360    -5.4770    -0.1410 h5         1 H71       0.062100
     44 HN61         8.4540    -6.5500    -5.1930 hn         1 H71       0.445800
     45 HN62         7.8530    -7.8440    -4.2080 hn         1 H71       0.445800
     46 H6'          3.3110    -3.9830    -7.2710 ha         1 H71       0.161000
     47 H'21         4.3420    -6.2850   -11.4730 h2         1 H71       0.076700
     48 H'22         5.1110    -7.0070   -10.0020 h2         1 H71       0.076700
     49 H3'          7.7640    -3.4870    -9.3560 ha         1 H71       0.159000
@<TRIPOS>BOND
     1     1     2 1
     2     1    29 1
     3     1    30 1
     4     1    31 1
     5     2     3 1
     6     2     4 1
     7     2    32 1
     8     3    33 1
     9     3    34 1
    10     3    35 1
    11     4     5 1
    12     4    36 1
    13     5     6 1
    14     5    37 1
    15     5    38 1
    16     6     7 1
    17     6    39 1
    18     6    40 1
    19     7     8 1
    20     7    41 1
    21     7    42 1
    22     8     9 1
    23     8    17 1
    24     9    10 ar
    25     9    15 ar
    26    10    11 ar
    27    11    12 ar
    28    11    43 1
    29    12    13 ar
    30    13    14 1
    31    13    15 ar
    32    14    44 1
    33    14    45 1
    34    15    16 1
    35    16    17 2
    36    17    18 1
    37    18    19 1
    38    19    20 ar
    39    19    27 ar
    40    20    21 ar
    41    20    46 1
    42    21    22 1
    43    21    25 ar
    44    22    23 1
    45    23    24 1
    46    23    47 1
    47    23    48 1
    48    24    25 1
    49    25    26 ar
    50    26    27 ar
    51    26    49 1
    52    27    28 1
@<TRIPOS>SUBSTRUCTURE
     1 H71         1 TEMP              0 ****  ****    0 ROOT
