@<TRIPOS>MOLECULE
H74
   59    62     1     0     0
SMALL
bcc


@<TRIPOS>ATOM
      1 C17          0.0000     0.0000     0.0000 ce         1 H74      -0.237200
      2 C10          5.6610    -0.4230     2.1510 ca         1 H74      -0.078300
      3 C11          6.2970     0.3210     1.1750 ca         1 H74      -0.072000
      4 C12          5.5580     0.9590     0.1950 ca         1 H74      -0.090000
      5 C13          4.1800     0.8540     0.1900 ca         1 H74      -0.104000
      6 C14          3.5380     0.1080     1.1690 ca         1 H74      -0.111400
      7 C16          1.4710     0.0000     0.0000 c          1 H74       0.562300
      8 C04          8.1630     2.6670     6.6950 ca         1 H74       0.008400
      9 C05          7.4990     1.6130     6.0330 ca         1 H74      -0.143400
     10 C06          6.4380     0.9620     6.6710 ca         1 H74       0.415100
     11 C07          5.8780    -0.0920     5.8420 cc         1 H74      -0.357800
     12 C08          6.7550    -0.1530     4.3380 cd         1 H74      -0.276600
     13 C09          6.4710    -1.1170     3.2160 c3         1 H74       0.356600
     14 C20          4.2840    -0.5270     2.1550 ca         1 H74      -0.113000
     15 C25         11.0480    -2.2390     4.1930 c3         1 H74       0.153800
     16 C26         11.9950    -1.0690     4.4700 c3         1 H74      -0.028900
     17 C27         13.1540    -1.1080     3.4700 c3         1 H74      -0.024400
     18 C28         12.5920    -1.0530     2.0470 c3         1 H74      -0.028900
     19 C29         11.6270    -2.2240     1.8400 c3         1 H74       0.153800
     20 C32          6.6760     2.3270     8.5410 ca         1 H74       0.410200
     21 C33          7.7330     3.0180     7.9750 ca         1 H74      -0.247300
     22 N15          2.1440     0.0000     1.1670 ns         1 H74      -0.014100
     23 N24         10.5370    -2.1410     2.8200 n3         1 H74      -0.516600
     24 N31          6.0710     1.3550     7.9030 nb         1 H74      -0.626000
     25 O01          9.9090     4.3810     6.7020 o          1 H74      -0.867300
     26 O03          9.6530     3.0560     4.9400 o          1 H74      -0.867300
     27 O19          2.0780    -0.0010    -1.0530 o          1 H74      -0.647100
     28 O21          7.7040    -1.5710     2.6550 os         1 H74      -0.385600
     29 S30          7.7640     0.9050     4.4450 ss         1 H74       0.245500
     30 H1          -0.5420    -0.0040     0.9380 ha         1 H74       0.102000
     31 H4           7.3770     0.4050     1.1770 ha         1 H74       0.132000
     32 H5           6.0590     1.5420    -0.5680 ha         1 H74       0.103000
     33 H6           3.6020     1.3520    -0.5780 ha         1 H74       0.133000
     34 H7           5.0480    -0.7080     6.1650 ha         1 H74       0.122000
     35 H8           5.9140    -1.9640     3.5990 h1         1 H74       0.010700
     36 H9           3.7870    -1.1100     2.9200 ha         1 H74       0.105000
     37 H10          8.3480    -2.6560     4.2850 h1         1 H74      -0.006300
     38 H11          7.4550    -3.5750     3.0660 h1         1 H74      -0.006300
     39 H12          9.8280    -4.1280     2.9660 h1         1 H74       0.007200
     40 H13          9.3650    -3.2840     1.4820 h1         1 H74       0.007200
     41 H16         11.4560    -0.1350     4.3610 hc         1 H74       0.028700
     42 H17         12.3850    -1.1510     5.4770 hc         1 H74       0.028700
     43 H18         13.7140    -2.0250     3.6020 hc         1 H74       0.006700
     44 H19         13.8020    -0.2550     3.6350 hc         1 H74       0.006700
     45 H20         12.0620    -0.1190     1.9050 hc         1 H74       0.028700
     46 H21         13.4050    -1.1260     1.3350 hc         1 H74       0.028700
     47 H22         12.1610    -3.1570     1.9730 h1         1 H74       0.001200
     48 H23         11.2150    -2.1770     0.8390 h1         1 H74       0.001200
     49 H24          6.3390     2.5960     9.5350 h4         1 H74      -0.043900
     50 H25          8.2200     3.8180     8.5190 ha         1 H74       0.141000
     51 H26          1.6440    -0.0410     2.0330 hn         1 H74       0.164500
     52 C1          -0.6650     0.0040    -1.1520 c2         1 H74      -0.070000
     53 H2          -0.1230     0.0080    -2.0900 ha         1 H74       0.089500
     54 H3          -1.7480     0.0040    -1.1520 ha         1 H74       0.089500
     55 C22          8.1860    -2.7910     3.2230 c3         1 H74       0.207400
     56 C23          9.5040    -3.1810     2.5510 c3         1 H74       0.147800
     57 H14         10.2190    -2.2030     4.8890 h1         1 H74       0.001200
     58 C02          9.2880     3.3780     6.0530 c          1 H74       0.963200
     59 H15         11.5860    -3.1720     4.3110 h1         1 H74       0.001200
@<TRIPOS>BOND
     1     1     7 1   
     2     1    30 1   
     3     1    52 2   
     4     2     3 ar  
     5     2    13 1   
     6     2    14 ar  
     7     3     4 ar  
     8     3    31 1   
     9     4     5 ar  
    10     4    32 1   
    11     5     6 ar  
    12     5    33 1   
    13     6    14 ar  
    14     6    22 1   
    15     7    22 1   
    16     7    27 2   
    17     8     9 ar  
    18     8    21 ar  
    19     8    58 1   
    20     9    10 ar  
    21     9    29 1   
    22    10    11 1   
    23    10    24 ar  
    24    11    12 2   
    25    11    34 1   
    26    12    13 1   
    27    12    29 1   
    28    13    28 1   
    29    13    35 1   
    30    14    36 1   
    31    15    16 1   
    32    15    23 1   
    33    15    57 1   
    34    15    59 1   
    35    16    17 1   
    36    16    41 1   
    37    16    42 1   
    38    17    18 1   
    39    17    43 1   
    40    17    44 1   
    41    18    19 1   
    42    18    45 1   
    43    18    46 1   
    44    19    23 1   
    45    19    47 1   
    46    19    48 1   
    47    20    21 ar  
    48    20    24 ar  
    49    20    49 1   
    50    21    50 1   
    51    22    51 1   
    52    23    56 1   
    53    25    58 1   
    54    26    58 1   
    55    28    55 1   
    56    37    55 1   
    57    38    55 1   
    58    39    56 1   
    59    40    56 1   
    60    52    53 1   
    61    52    54 1   
    62    55    56 1   
@<TRIPOS>SUBSTRUCTURE
     1 H74         1 TEMP              0 ****  ****    0 ROOT
