@<TRIPOS>MOLECULE
molecule
   30    32     1     0     0
SMALL
bcc


@<TRIPOS>ATOM
      1 O1           0.0000     0.0000     0.0000 o          1 H75      -0.667500
      2 C2           1.2180     0.0000     0.0000 c          1 H75       0.784500
      3 N3           2.0060     0.0000     1.0860 n          1 H75      -0.360000
      4 C4           1.6020    -0.0480     2.4950 c3         1 H75       0.132000
      5 C5           2.7760     0.4330     3.3570 c3         1 H75      -0.104400
      6 C6           4.0380    -0.3520     2.9840 c3         1 H75      -0.087400
      7 C7           4.5140     0.0920     1.5930 c3         1 H75      -0.013200
      8 C8           3.3310     0.0340     0.6580 cc         1 H75      -0.054600
      9 C9           3.3340     0.0240    -0.6640 cd         1 H75      -0.135400
     10 N10          2.0110    -0.0070    -1.0920 n          1 H75      -0.257200
     11 C11          1.5770    -0.0380    -2.4240 ca         1 H75       0.093600
     12 C12          2.5050    -0.0410    -3.4570 ca         1 H75      -0.158000
     13 C13          2.0740    -0.0710    -4.7690 ca         1 H75      -0.081500
     14 C14          0.7210    -0.0970    -5.0550 ca         1 H75      -0.041900
     15 Br           0.1360    -0.1390    -6.8530 br         1 H75      -0.099100
     16 C16         -0.2050    -0.0940    -4.0260 ca         1 H75      -0.081500
     17 C17          0.2200    -0.0710    -2.7120 ca         1 H75      -0.158000
     18 H4           0.7490     0.6010     2.6500 h1         1 H75       0.063200
     19 H4A          1.3460    -1.0650     2.7650 h1         1 H75       0.063200
     20 H5           2.5460     0.2690     4.4020 hc         1 H75       0.057700
     21 H5A          2.9430     1.4890     3.1800 hc         1 H75       0.057700
     22 H6           4.8120    -0.1070     3.7010 hc         1 H75       0.056200
     23 H6A          3.7800    -1.4030     2.9340 hc         1 H75       0.056200
     24 H7           4.8490     1.1200     1.6580 hc         1 H75       0.066200
     25 H7A          5.2600    -0.6120     1.2460 hc         1 H75       0.066200
     26 H9           4.0900    -0.5370    -1.2000 h4         1 H75       0.178000
     27 H12          3.5650    -0.0210    -3.2350 ha         1 H75       0.165000
     28 H13          2.7970    -0.0740    -5.5760 ha         1 H75       0.147000
     29 H16         -1.2640    -0.1170    -4.2520 ha         1 H75       0.147000
     30 H17         -0.5050    -0.0680    -1.9080 ha         1 H75       0.165000
@<TRIPOS>BOND
     1     1     2 2
     2     2     3 1
     3     2    10 1
     4     3     4 1
     5     3     8 1
     6     4     5 1
     7     5     6 1
     8     6     7 1
     9     7     8 1
    10     8     9 2
    11     9    10 1
    12    10    11 1
    13    11    12 ar
    14    11    17 ar
    15    12    13 ar
    16    13    14 ar
    17    14    15 1
    18    14    16 ar
    19    16    17 ar
    20     4    18 1
    21     4    19 1
    22     5    20 1
    23     5    21 1
    24     6    22 1
    25     6    23 1
    26     7    24 1
    27     7    25 1
    28     9    26 1
    29    12    27 1
    30    13    28 1
    31    16    29 1
    32    17    30 1
@<TRIPOS>SUBSTRUCTURE
     1 H75         1 TEMP              0 ****  ****    0 ROOT
