@<TRIPOS>MOLECULE
H75
   30    32     1     0     0
SMALL
bcc


@<TRIPOS>ATOM
      1 O1           0.0000     0.0000     0.0000 o          1 H75      -0.724500
      2 C2           1.2180     0.0000     0.0000 c          1 H75       0.549500
      3 N3           2.0060     0.0000     1.0860 n          1 H75       0.052000
      4 C4           1.6020    -0.0480     2.4950 c3         1 H75       0.062000
      5 C5           2.7760     0.4330     3.3570 c3         1 H75      -0.044400
      6 C6           4.0380    -0.3520     2.9840 c3         1 H75      -0.038400
      7 C7           4.5140     0.0920     1.5930 c3         1 H75       0.069800
      8 C8           3.3310     0.0340     0.6580 cc         1 H75      -0.200600
      9 C9           3.3340     0.0240    -0.6640 cd         1 H75      -0.275400
     10 N10          2.0110    -0.0070    -1.0920 n          1 H75       0.207800
     11 C11          1.5770    -0.0380    -2.4240 ca         1 H75      -0.075400
     12 C12          2.5050    -0.0410    -3.4570 ca         1 H75      -0.130000
     13 C13          2.0740    -0.0710    -4.7690 ca         1 H75      -0.061000
     14 C14          0.7210    -0.0970    -5.0550 ca         1 H75       0.018100
     15 Br           0.1360    -0.1390    -6.8530 br         1 H75      -0.133100
     16 C16         -0.2050    -0.0940    -4.0260 ca         1 H75      -0.061000
     17 C17          0.2200    -0.0710    -2.7120 ca         1 H75      -0.130000
     18 H4           0.7490     0.6010     2.6500 h1         1 H75       0.032700
     19 H4A          1.3460    -1.0650     2.7650 h1         1 H75       0.032700
     20 H5           2.5460     0.2690     4.4020 hc         1 H75       0.027200
     21 H5A          2.9430     1.4890     3.1800 hc         1 H75       0.027200
     22 H6           4.8120    -0.1070     3.7010 hc         1 H75       0.026200
     23 H6A          3.7800    -1.4030     2.9340 hc         1 H75       0.026200
     24 H7           4.8490     1.1200     1.6580 hc         1 H75       0.030700
     25 H7A          5.2600    -0.6120     1.2460 hc         1 H75       0.030700
     26 H9           4.0900    -0.5370    -1.2000 h4         1 H75       0.157000
     27 H12          3.5650    -0.0210    -3.2350 ha         1 H75       0.145000
     28 H13          2.7970    -0.0740    -5.5760 ha         1 H75       0.117500
     29 H16         -1.2640    -0.1170    -4.2520 ha         1 H75       0.117500
     30 H17         -0.5050    -0.0680    -1.9080 ha         1 H75       0.145000
@<TRIPOS>BOND
     1     1     2 2   
     2     2     3 1   
     3     2    10 1   
     4     3     4 1   
     5     3     8 1   
     6     4     5 1   
     7     4    18 1   
     8     4    19 1   
     9     5     6 1   
    10     5    20 1   
    11     5    21 1   
    12     6     7 1   
    13     6    22 1   
    14     6    23 1   
    15     7     8 1   
    16     7    24 1   
    17     7    25 1   
    18     8     9 2   
    19     9    10 1   
    20     9    26 1   
    21    10    11 1   
    22    11    12 ar  
    23    11    17 ar  
    24    12    13 ar  
    25    12    27 1   
    26    13    14 ar  
    27    13    28 1   
    28    14    15 1   
    29    14    16 ar  
    30    16    17 ar  
    31    16    29 1   
    32    17    30 1   
@<TRIPOS>SUBSTRUCTURE
     1 H75         1 TEMP              0 ****  ****    0 ROOT
