@<TRIPOS>MOLECULE
H76
   21    21     1     0     0
SMALL
bcc


@<TRIPOS>ATOM
      1 CAG         -1.1740     0.0160    -0.0130 c1         1 H76      -0.111500
      2 CAF          0.0000     0.0000     0.0000 c1         1 H76      -0.171100
      3 CAD          1.4720     0.0000     0.0000 c3         1 H76       0.236600
      4 NAE          1.9860     0.0000     1.3850 n7         1 H76      -0.572200
      5 CAA          3.1950     0.8430     1.4380 c3         1 H76       0.109500
      6 CAH          4.4000     0.0000     1.8600 c3         1 H76       0.019900
      7 CAB          3.4190     1.4080     0.0200 c3         1 H76       0.158100
      8 OAI          4.3580     0.6050    -0.7010 oh         1 H76      -0.552800
      9 CAC          2.0110     1.3110    -0.6250 c3         1 H76       0.136100
     10 OAJ          2.1010     1.2010    -2.0470 oh         1 H76      -0.555800
     11 H1          -2.1840    -0.3190    -0.2130 ha         1 H76       0.140500
     12 H2           1.8540    -0.8570    -0.5410 h1         1 H76       0.071700
     13 H3           1.2910     0.3750     2.0000 hn         1 H76       0.257800
     14 H5           3.0440     1.6570     2.1370 h1         1 H76       0.015700
     15 H6           4.4840    -0.8610     1.2080 hc         1 H76       0.009700
     16 H7           4.2680    -0.3320     2.8820 hc         1 H76       0.009700
     17 H8           5.3010     0.5970     1.7870 hc         1 H76       0.009700
     18 H9           3.7450     2.4400     0.0680 h1         1 H76       0.003700
     19 H10          4.9490     1.1640    -1.1770 ho         1 H76       0.388000
     20 H11          1.3970     2.1550    -0.3340 h1         1 H76       0.012700
     21 H12          1.7020     1.9560    -2.4470 ho         1 H76       0.385000
@<TRIPOS>BOND
     1     1     2 3   
     2     1    11 1   
     3     2     3 1   
     4     3     4 1   
     5     3     9 1   
     6     3    12 1   
     7     4     5 1   
     8     4    13 1   
     9     5     6 1   
    10     5     7 1   
    11     5    14 1   
    12     6    15 1   
    13     6    16 1   
    14     6    17 1   
    15     7     8 1   
    16     7     9 1   
    17     7    18 1   
    18     8    19 1   
    19     9    10 1   
    20     9    20 1   
    21    10    21 1   
@<TRIPOS>SUBSTRUCTURE
     1 H76         1 TEMP              0 ****  ****    0 ROOT
