@<TRIPOS>MOLECULE
molecule
   21    21     1     0     0
SMALL
bcc


@<TRIPOS>ATOM
      1 CAG         -1.1740     0.0160    -0.0130 c1         1 H76      -0.141500
      2 CAF          0.0000     0.0000     0.0000 c1         1 H76      -0.155100
      3 CAD          1.4720     0.0000     0.0000 c3         1 H76       0.244600
      4 NAE          1.9860     0.0000     1.3850 n7         1 H76      -0.790200
      5 CAA          3.1950     0.8430     1.4380 c3         1 H76       0.152500
      6 CAH          4.4000     0.0000     1.8600 c3         1 H76      -0.066100
      7 CAB          3.4190     1.4080     0.0200 c3         1 H76       0.113100
      8 OAI          4.3580     0.6050    -0.7010 oh         1 H76      -0.572800
      9 CAC          2.0110     1.3110    -0.6250 c3         1 H76       0.097100
     10 OAJ          2.1010     1.2010    -2.0470 oh         1 H76      -0.578800
     11 H1          -2.1840    -0.3190    -0.2130 ha         1 H76       0.167500
     12 H2           1.8540    -0.8570    -0.5410 h1         1 H76       0.118700
     13 H3           1.2910     0.3750     2.0000 hn         1 H76       0.355800
     14 H5           3.0440     1.6570     2.1370 h1         1 H76       0.040700
     15 H6           4.4840    -0.8610     1.2080 hc         1 H76       0.043367
     16 H7           4.2680    -0.3320     2.8820 hc         1 H76       0.043367
     17 H8           5.3010     0.5970     1.7870 hc         1 H76       0.043367
     18 H9           3.7450     2.4400     0.0680 h1         1 H76       0.038700
     19 H10          4.9490     1.1640    -1.1770 ho         1 H76       0.403000
     20 H11          1.3970     2.1550    -0.3340 h1         1 H76       0.045700
     21 H12          1.7020     1.9560    -2.4470 ho         1 H76       0.400000
@<TRIPOS>BOND
     1     1     2 3
     2     2     3 1
     3     5     4 1
     4     5     6 1
     5     5     7 1
     6     4     3 1
     7     9     3 1
     8     9     7 1
     9     9    10 1
    10     7     8 1
    11     1    11 1
    12     3    12 1
    13     4    13 1
    14     5    14 1
    15     6    15 1
    16     6    16 1
    17     6    17 1
    18     7    18 1
    19     8    19 1
    20     9    20 1
    21    10    21 1
@<TRIPOS>SUBSTRUCTURE
     1 H76         1 TEMP              0 ****  ****    0 ROOT
