@<TRIPOS>MOLECULE
H77
   70    75     1     0     0
SMALL
bcc


@<TRIPOS>ATOM
      1 C02          0.0000     0.0000     0.0000 c2         1 H77       0.413000
      2 C04          1.4770     0.0000     0.0000 c2         1 H77      -0.014000
      3 C05          2.2010     0.0000     1.2120 c2         1 H77      -0.200000
      4 C06          3.6000    -0.0010     1.1740 c2         1 H77      -0.082000
      5 C07          4.1730    -0.0020     2.5100 c2         1 H77      -0.105000
      6 C08          3.2920    -0.0020     3.4920 c2         1 H77      -0.311000
      7 C09          3.6530    -0.0010     4.9550 c3         1 H77       0.204000
      8 C10          3.5330     1.3970     5.5030 ca         1 H77      -0.069000
      9 C11          2.3100     1.8640     5.9460 ca         1 H77      -0.065000
     10 C12          2.1960     3.1470     6.4480 ca         1 H77      -0.089000
     11 C13          3.3060     3.9670     6.5100 ca         1 H77      -0.102000
     12 C14          4.5370     3.5020     6.0660 ca         1 H77      -0.101000
     13 C16          5.7850     5.2280     7.1240 c3         1 H77       0.328000
     14 C17          6.9110     6.1740     7.1250 c2         1 H77      -0.189000
     15 C18          7.0320     7.0620     8.1090 c2         1 H77      -0.008000
     16 C19          8.1850     8.0310     8.1120 DU         1 H77       0.006000
     17 C21          8.7580    10.3600     8.4420 c3         1 H77      -0.091500
     18 C22          6.9160     9.7610     6.9890 c3         1 H77      -0.091500
     19 C24          4.6480     2.2100     5.5660 ca         1 H77      -0.120000
     20 C27          2.1950    -3.0520     6.5290 c3         1 H77      -0.091000
     21 C29         -0.1850    -3.4810     6.6390 c3         1 H77      -0.084000
     22 C30         -1.4930    -3.3980     5.8480 c3         1 H77      -0.108000
     23 C31         -1.4210    -4.3520     4.6510 c3         1 H77      -0.103000
     24 C32         -0.2120    -3.9820     3.7860 c3         1 H77      -0.108000
     25 C33          1.0570    -4.0470     4.6370 c3         1 H77      -0.084000
     26 C36          3.5770    -0.0060    -1.1530 c2         1 H77      -0.100000
     27 C37          2.1940    -0.0050    -1.1980 c2         1 H77      -0.123000
     28 N15          5.6620     4.3300     6.1260 nu         1 H77       0.097000
     29 N20          7.6700     9.4050     8.1990 n3         1 H77      -0.091000
     30 N28          0.9390    -3.1180     5.7680 n3         1 H77      -0.037000
     31 N35          4.2260    -0.0010    -0.0150 n2         1 H77      -0.063000
     32 O01         -0.6070     0.0000     1.0520 o          1 H77      -0.598500
     33 O03         -0.6730     0.0060    -1.1670 o          1 H77      -0.598500
     34 O23          4.9650     5.2560     8.0210 o          1 H77      -0.429000
     35 O25          2.7640    -0.8680     5.6650 os         1 H77      -0.238000
     36 S34          1.6490    -0.0010     2.8800 ss         1 H77       0.350000
     37 H1           5.2420    -0.0020     2.6860 ha         1 H77       0.106000
     38 H2           4.6710    -0.3510     5.0760 h1         1 H77       0.044000
     39 H3           1.4380     1.2230     5.8990 ha         1 H77       0.134000
     40 H4           1.2360     3.5100     6.7950 ha         1 H77       0.104000
     41 H5           3.2160     4.9730     6.9010 ha         1 H77       0.135000
     42 H6           6.8600     5.2820     7.7380 DU         1 H77       0.027000
     43 H7           8.0420     6.8100     8.4090 DU         1 H77       0.021000
     44 H8           8.7540     7.9170     7.1970 ha         1 H77       0.054500
     45 H9           8.8240     7.8300     8.9630 ha         1 H77       0.054500
     46 H10          8.3440    11.3510     8.5880 h1         1 H77       0.041000
     47 H11          9.3080    10.0650     9.3270 h1         1 H77       0.041000
     48 H12          9.4260    10.3710     7.5890 h1         1 H77       0.041000
     49 H13          6.7450    10.8300     6.9720 h1         1 H77       0.041000
     50 H14          5.9650     9.2430     6.9910 h1         1 H77       0.041000
     51 H15          7.4830     9.4720     6.1120 h1         1 H77       0.041000
     52 H16          5.6060     1.8440     5.2180 ha         1 H77       0.102000
     53 H17          4.1710    -2.2480     6.2660 h1         1 H77       0.033000
     54 H18          3.3320    -2.6270     4.7550 h1         1 H77       0.033000
     55 H19          2.0100    -2.5910     7.4920 h1         1 H77       0.046500
     56 H20          2.5810    -4.0530     6.6760 h1         1 H77       0.046500
     57 H21         -0.2270    -2.7960     7.4760 h1         1 H77       0.040250
     58 H22         -0.0470    -4.4930     7.0000 h1         1 H77       0.040250
     59 H23         -2.3190    -3.6840     6.4870 hc         1 H77       0.068750
     60 H24         -1.6360    -2.3850     5.4930 hc         1 H77       0.068750
     61 H25         -1.3120    -5.3700     5.0070 hc         1 H77       0.046000
     62 H26         -2.3260    -4.2630     4.0640 hc         1 H77       0.046000
     63 H27         -0.3380    -2.9760     3.4030 hc         1 H77       0.068750
     64 H28         -0.1300    -4.6810     2.9620 hc         1 H77       0.068750
     65 H29          1.1870    -5.0550     5.0120 h1         1 H77       0.040250
     66 H30          1.9110    -3.7690     4.0310 h1         1 H77       0.040250
     67 H31          4.1370    -0.0100    -2.0810 h4         1 H77       0.098000
     68 H32          1.6750    -0.0090    -2.1480 ha         1 H77       0.139000
     69 H33          6.3620     4.2750     5.4130 hn         1 H77       0.085000
     70 C26          3.2180    -2.2200     5.7520 c3         1 H77       0.054000
@<TRIPOS>BOND
     1     1     2 1   
     2     1    32 1   
     3     1    33 1   
     4     2     3 1   
     5     2    27 1   
     6     3     4 1   
     7     3    36 1   
     8     4     5 1   
     9     4    31 1   
    10     5     6 1   
    11     5    37 1   
    12     6     7 1   
    13     6    36 1   
    14     7     8 1   
    15     7    35 1   
    16     7    38 1   
    17     8     9 1   
    18     8    19 1   
    19     9    10 1   
    20     9    39 1   
    21    10    11 1   
    22    10    40 1   
    23    11    12 1   
    24    11    41 1   
    25    12    19 1   
    26    12    28 1   
    27    13    14 1   
    28    13    28 1   
    29    13    34 1   
    30    13    42 1   
    31    14    15 1   
    32    14    42 1   
    33    15    16 1   
    34    15    43 1   
    35    16    29 1   
    36    16    43 1   
    37    16    44 1   
    38    16    45 1   
    39    17    29 1   
    40    17    46 1   
    41    17    47 1   
    42    17    48 1   
    43    18    29 1   
    44    18    49 1   
    45    18    50 1   
    46    18    51 1   
    47    19    52 1   
    48    20    30 1   
    49    20    55 1   
    50    20    56 1   
    51    20    70 1   
    52    21    22 1   
    53    21    30 1   
    54    21    57 1   
    55    21    58 1   
    56    22    23 1   
    57    22    59 1   
    58    22    60 1   
    59    23    24 1   
    60    23    61 1   
    61    23    62 1   
    62    24    25 1   
    63    24    63 1   
    64    24    64 1   
    65    25    30 1   
    66    25    65 1   
    67    25    66 1   
    68    26    27 1   
    69    26    31 1   
    70    26    67 1   
    71    27    68 1   
    72    28    69 1   
    73    35    70 1   
    74    53    70 1   
    75    54    70 1   
@<TRIPOS>SUBSTRUCTURE
     1 H77         1 TEMP              0 ****  ****    0 ROOT
