@<TRIPOS>MOLECULE
molecule
   70    73     1     0     0
SMALL
bcc


@<TRIPOS>ATOM
      1 C02          0.0000     0.0000     0.0000 c          1 H77       0.878200
      2 C04          1.4770     0.0000     0.0000 ca         1 H77      -0.040600
      3 C05          2.2010     0.0000     1.2120 ca         1 H77      -0.120400
      4 C06          3.6000    -0.0010     1.1740 ca         1 H77       0.411100
      5 C07          4.1730    -0.0020     2.5100 cc         1 H77      -0.248800
      6 C08          3.2920    -0.0020     3.4920 cd         1 H77      -0.119600
      7 C09          3.6530    -0.0010     4.9550 c3         1 H77       0.266600
      8 C10          3.5330     1.3970     5.5030 ca         1 H77      -0.058300
      9 C11          2.3100     1.8640     5.9460 ca         1 H77      -0.100000
     10 C12          2.1960     3.1470     6.4480 ca         1 H77      -0.119000
     11 C13          3.3060     3.9670     6.5100 ca         1 H77      -0.128000
     12 C14          4.5370     3.5020     6.0660 ca         1 H77       0.041600
     13 C16          5.7850     5.2280     7.1240 c          1 H77       0.662300
     14 C17          6.9110     6.1740     7.1250 ce         1 H77      -0.257200
     15 C18          7.0320     7.0620     8.1090 c2         1 H77      -0.082200
     16 C19          8.1850     8.0310     8.1120 c3         1 H77       0.185000
     17 C21          8.7580    10.3600     8.4420 c3         1 H77       0.150600
     18 C22          6.9160     9.7610     6.9890 c3         1 H77       0.150600
     19 C24          4.6480     2.2100     5.5660 ca         1 H77      -0.149000
     20 C27          2.1950    -3.0520     6.5290 c3         1 H77       0.164800
     21 C29         -0.1850    -3.4810     6.6390 c3         1 H77       0.165800
     22 C30         -1.4930    -3.3980     5.8480 c3         1 H77      -0.079400
     23 C31         -1.4210    -4.3520     4.6510 c3         1 H77      -0.080400
     24 C32         -0.2120    -3.9820     3.7860 c3         1 H77      -0.079400
     25 C33          1.0570    -4.0470     4.6370 c3         1 H77       0.165800
     26 C36          3.5770    -0.0060    -1.1530 ca         1 H77       0.391200
     27 C37          2.1940    -0.0050    -1.1980 ca         1 H77      -0.223300
     28 N15          5.6620     4.3300     6.1260 ns         1 H77      -0.468100
     29 N20          7.6700     9.4050     8.1990 n3         1 H77      -0.727600
     30 N28          0.9390    -3.1180     5.7680 n3         1 H77      -0.707600
     31 N35          4.2260    -0.0010    -0.0150 nb         1 H77      -0.706000
     32 O01         -0.6070     0.0000     1.0520 o          1 H77      -0.822300
     33 O03         -0.6730     0.0060    -1.1670 o          1 H77      -0.822300
     34 O23          4.9650     5.2560     8.0210 o          1 H77      -0.603100
     35 O25          2.7640    -0.8680     5.6650 os         1 H77      -0.400600
     36 S34          1.6490    -0.0010     2.8800 ss         1 H77       0.058500
     37 H1           5.2420    -0.0020     2.6860 ha         1 H77       0.130000
     38 H2           4.6710    -0.3510     5.0760 h1         1 H77       0.039700
     39 H3           1.4380     1.2230     5.8990 ha         1 H77       0.158000
     40 H4           1.2360     3.5100     6.7950 ha         1 H77       0.132000
     41 H5           3.2160     4.9730     6.9010 ha         1 H77       0.152000
     42 H6           7.6410     6.1480     6.3260 ha         1 H77       0.124000
     43 H7           6.3010     7.0870     8.9090 ha         1 H77       0.165000
     44 H8           8.8240     7.8300     8.9630 h1         1 H77       0.041200
     45 H9           8.7540     7.9170     7.1970 h1         1 H77       0.041200
     46 H10          9.4040    10.4010     7.5720 h1         1 H77       0.033533
     47 H11          8.3420    11.3430     8.6280 h1         1 H77       0.033533
     48 H12          9.3330    10.0420     9.3030 h1         1 H77       0.033533
     49 H13          5.9550     9.2610     7.0030 h1         1 H77       0.033533
     50 H14          6.7650    10.8330     6.9600 h1         1 H77       0.033533
     51 H15          7.4720     9.4500     6.1130 h1         1 H77       0.033533
     52 H16          5.6060     1.8440     5.2180 ha         1 H77       0.125000
     53 H17          3.3320    -2.6270     4.7550 h1         1 H77       0.025200
     54 H18          4.1710    -2.2480     6.2660 h1         1 H77       0.025200
     55 H19          2.0100    -2.5910     7.4920 h1         1 H77       0.034200
     56 H20          2.5810    -4.0530     6.6760 h1         1 H77       0.034200
     57 H21         -0.0470    -4.4930     7.0000 h1         1 H77       0.024950
     58 H22         -0.2270    -2.7960     7.4760 h1         1 H77       0.024950
     59 H23         -2.3190    -3.6840     6.4870 hc         1 H77       0.057450
     60 H24         -1.6360    -2.3850     5.4930 hc         1 H77       0.057450
     61 H25         -2.3260    -4.2630     4.0640 hc         1 H77       0.033700
     62 H26         -1.3120    -5.3700     5.0070 hc         1 H77       0.033700
     63 H27         -0.3380    -2.9760     3.4030 hc         1 H77       0.057450
     64 H28         -0.1300    -4.6810     2.9620 hc         1 H77       0.057450
     65 H29          1.1870    -5.0550     5.0120 h1         1 H77       0.024950
     66 H30          1.9110    -3.7690     4.0310 h1         1 H77       0.024950
     67 H31          4.1370    -0.0100    -2.0810 h4         1 H77      -0.000900
     68 H32          1.6750    -0.0090    -2.1480 ha         1 H77       0.162000
     69 H33          6.3660     4.2700     5.4180 hn         1 H77       0.321500
     70 C26          3.2180    -2.2200     5.7520 c3         1 H77       0.143400
@<TRIPOS>BOND
     1    25    24 1
     2    25    30 1
     3    17    29 1
     4    23    24 1
     5    23    22 1
     6    30    21 1
     7    30    20 1
     8    21    22 1
     9    18    29 1
    10    29    16 1
    11    16    15 1
    12    20    70 1
    13    70    35 1
    14    15    14 2
    15    35     7 1
    16     5     6 2
    17     5     4 1
    18     7     6 1
    19     7     8 1
    20    31     4 ar
    21    31    26 ar
    22     6    36 1
    23    14    13 1
    24     4     3 ar
    25     8    19 ar
    26     8     9 ar
    27    26    27 ar
    28    19    12 ar
    29     9    10 ar
    30    13    34 2
    31    13    28 1
    32     3    36 1
    33     3     2 ar
    34    12    28 1
    35    12    11 ar
    36    27     2 ar
    37    10    11 ar
    38     2     1 1
    39     1    32 1
    40     1    33 1
    41     5    37 1
    42     7    38 1
    43     9    39 1
    44    10    40 1
    45    11    41 1
    46    14    42 1
    47    15    43 1
    48    16    44 1
    49    16    45 1
    50    17    46 1
    51    17    47 1
    52    17    48 1
    53    18    49 1
    54    18    50 1
    55    18    51 1
    56    19    52 1
    57    70    53 1
    58    70    54 1
    59    20    55 1
    60    20    56 1
    61    21    57 1
    62    21    58 1
    63    22    59 1
    64    22    60 1
    65    23    61 1
    66    23    62 1
    67    24    63 1
    68    24    64 1
    69    25    65 1
    70    25    66 1
    71    26    67 1
    72    27    68 1
    73    28    69 1
@<TRIPOS>SUBSTRUCTURE
     1 H77         1 TEMP              0 ****  ****    0 ROOT
