@<TRIPOS>MOLECULE
H7D
   43    44     1     0     0
SMALL
bcc


@<TRIPOS>ATOM
      1 N            0.0000     0.0000     0.0000 n7         1 H7D      -0.566100
      2 C            1.8180    -1.0710    -2.2100 c          1 H7D       0.988600
      3 O            2.2010    -2.0470    -3.0460 o          1 H7D      -0.899300
      4 C1           1.9760    -1.2500    -0.7210 c3         1 H7D      -0.209700
      5 C10          0.1580     3.6850    -3.2600 c3         1 H7D      -0.036400
      6 C11         -0.5980     2.5610    -4.0160 c3         1 H7D      -0.036400
      7 C12         -1.2590     1.7610    -2.8740 c3         1 H7D       0.244300
      8 C2           1.1670    -2.4660    -0.2650 c3         1 H7D      -0.015400
      9 C3           1.6260    -2.8880     1.1320 c3         1 H7D      -0.054400
     10 C4           3.1540    -2.8620     1.1980 c3         1 H7D      -0.050400
     11 C5           3.6050    -1.7540     2.1520 c3         1 H7D      -0.024400
     12 C6           3.4530    -0.3960     1.4640 c3         1 H7D      -0.042400
     13 C7           1.9750     0.0000     1.4430 c3         1 H7D      -0.085400
     14 C8           1.4650     0.0000     0.0000 c3         1 H7D       0.226500
     15 C9           0.6190     2.9440    -1.9800 c3         1 H7D       0.244300
     16 N1          -0.4940     2.0350    -1.6490 n3         1 H7D      -0.514500
     17 O1           1.3470    -0.0480    -2.6480 o          1 H7D      -0.899300
     18 O2          -2.2090     1.0910    -0.1470 o          1 H7D      -0.619800
     19 O3          -0.2470     2.3250     0.7890 o          1 H7D      -0.619800
     20 S           -0.8280     1.4260    -0.1460 s6         1 H7D       1.134800
     21 H1          -0.5000    -0.8570     0.1290 hn         1 H7D       0.356800
     22 H3           3.0210    -1.4020    -0.4800 hc         1 H7D       0.065700
     23 H6           0.0960     1.9380    -4.5670 hc         1 H7D       0.013200
     24 H7          -1.3510     2.9820    -4.6720 hc         1 H7D       0.013200
     25 H8          -1.2240     0.7020    -3.1000 h1         1 H7D       0.018700
     26 H9          -2.2860     2.0820    -2.7460 h1         1 H7D       0.018700
     27 H10          1.3250    -3.2840    -0.9580 hc         1 H7D       0.027700
     28 H11          0.1150    -2.2090    -0.2350 hc         1 H7D       0.027700
     29 H12          1.2230    -2.2010     1.8660 hc         1 H7D       0.010200
     30 H13          1.2750    -3.8920     1.3380 hc         1 H7D       0.010200
     31 H14          3.5150    -3.8170     1.5610 hc         1 H7D       0.027200
     32 H15          3.5540    -2.6710     0.2100 hc         1 H7D       0.027200
     33 H16          4.6440    -1.9090     2.4170 hc         1 H7D       0.001200
     34 H17          2.9920    -1.7760     3.0450 hc         1 H7D       0.001200
     35 H18          4.0180     0.3490     2.0100 hc         1 H7D       0.022700
     36 H19          3.8210    -0.4640     0.4470 hc         1 H7D       0.022700
     37 H20          1.4030    -0.7120     2.0260 hc         1 H7D       0.028700
     38 H21          1.8620     0.9920     1.8640 hc         1 H7D       0.028700
     39 H22          1.8310     0.8830    -0.5100 h1         1 H7D       0.049700
     40 H23          0.7790     3.6500    -1.1750 h1         1 H7D       0.018700
     41 H24          1.5200     2.3770    -2.1790 h1         1 H7D       0.018700
     42 H4          -0.5110     4.5010    -3.0130 hc         1 H7D       0.013200
     43 H5           1.0090     4.0310    -3.8330 hc         1 H7D       0.013200
@<TRIPOS>BOND
     1     1    14 1   
     2     1    20 1   
     3     1    21 1   
     4     2     3 1   
     5     2     4 1   
     6     2    17 1   
     7     4     8 1   
     8     4    14 1   
     9     4    22 1   
    10     5     6 1   
    11     5    15 1   
    12     5    42 1   
    13     5    43 1   
    14     6     7 1   
    15     6    23 1   
    16     6    24 1   
    17     7    16 1   
    18     7    25 1   
    19     7    26 1   
    20     8     9 1   
    21     8    27 1   
    22     8    28 1   
    23     9    10 1   
    24     9    29 1   
    25     9    30 1   
    26    10    11 1   
    27    10    31 1   
    28    10    32 1   
    29    11    12 1   
    30    11    33 1   
    31    11    34 1   
    32    12    13 1   
    33    12    35 1   
    34    12    36 1   
    35    13    14 1   
    36    13    37 1   
    37    13    38 1   
    38    14    39 1   
    39    15    16 1   
    40    15    40 1   
    41    15    41 1   
    42    16    20 1   
    43    18    20 2   
    44    19    20 2   
@<TRIPOS>SUBSTRUCTURE
     1 H7D         1 TEMP              0 ****  ****    0 ROOT
