@<TRIPOS>MOLECULE
molecule
   33    34     1     0     0
SMALL
bcc


@<TRIPOS>ATOM
      1 C15          0.0000     0.0000     0.0000 ca         1 H7G       0.000000
      2 C17         -0.0070     0.0000     2.3970 ca         1 H7G      -0.051000
      3 C20          2.0730     0.0000     1.2020 ca         1 H7G       0.232100
      4 C22          2.8400     3.6780    -0.7830 ca         1 H7G      -0.125000
      5 C02          3.6210     6.8570    -0.6380 c          1 H7G       0.893600
      6 C05          2.1610     4.8810    -0.7860 ca         1 H7G       0.004700
      7 C06          1.0610     5.0530    -1.6050 ca         1 H7G      -0.126000
      8 C07          0.6350     4.0220    -2.4230 ca         1 H7G      -0.123000
      9 C08          1.3080     2.8170    -2.4250 ca         1 H7G      -0.190000
     10 C09          2.4150     2.6400    -1.6030 ca         1 H7G       0.108600
     11 C14          1.3810     0.0000     0.0000 ca         1 H7G      -0.311500
     12 C16         -0.6940    -0.0000     1.1970 ca         1 H7G      -0.169000
     13 C18          1.3760     0.0000     2.4030 ca         1 H7G      -0.059600
     14 N10          3.1030     1.4250    -1.6070 nu         1 H7G      -0.753500
     15 O01          3.9290     6.5760    -1.7720 o          1 H7G      -0.842300
     16 O03          4.1710     7.9240    -0.0390 o          1 H7G      -0.842300
     17 O12          3.2350    -1.0330    -1.4260 o          1 H7G      -0.646800
     18 O13          1.2840     0.0500    -2.5540 o          1 H7G      -0.646800
     19 O21          3.4330    -0.0020     1.2050 oh         1 H7G      -0.495100
     20 S11          2.2620    -0.0010    -1.5240 sy         1 H7G       1.435200
     21 Cl1          2.2380    -0.0010     3.9090 cl         1 H7G      -0.105400
     22 H1          -0.5410    -0.0000    -0.9390 ha         1 H7G       0.164000
     23 H2          -0.5520     0.0000     3.3320 ha         1 H7G       0.142000
     24 H3           3.7030     3.5440    -0.1410 ha         1 H7G       0.137000
     25 H4           3.0860     5.5980     0.9930 hc         1 H7G       0.041200
     26 H5           1.7710     6.6150     0.3870 hc         1 H7G       0.041200
     27 H6           0.5310     5.9980    -1.6050 ha         1 H7G       0.129000
     28 H7          -0.2280     4.1610    -3.0630 ha         1 H7G       0.114000
     29 H8           0.9740     2.0110    -3.0660 ha         1 H7G       0.153000
     30 H9          -1.7770     0.0000     1.1940 ha         1 H7G       0.139000
     31 H10          4.0970     1.4130    -1.7160 hn         1 H7G       0.467800
     32 H12          3.7450    -0.6940     1.7650 ho         1 H7G       0.440000
     33 C04          2.6220     6.0070     0.1040 c3         1 H7G      -0.155100
@<TRIPOS>BOND
     1    15     5 1
     2    16     5 1
     3     5    33 1
     4    33     6 1
     5     7     6 ar
     6     7     8 ar
     7     6     4 ar
     8     8     9 ar
     9     4    10 ar
    10     9    10 ar
    11    10    14 1
    12    14    20 1
    13    18    20 2
    14    20    11 1
    15    20    17 2
    16     1    11 ar
    17     1    12 ar
    18    11     3 ar
    19    12     2 ar
    20     3    19 1
    21     3    13 ar
    22     2    13 ar
    23    13    21 1
    24     1    22 1
    25     2    23 1
    26     4    24 1
    27    33    25 1
    28    33    26 1
    29     7    27 1
    30     8    28 1
    31     9    29 1
    32    12    30 1
    33    14    31 1
    34    19    32 1
@<TRIPOS>SUBSTRUCTURE
     1 H7G         1 TEMP              0 ****  ****    0 ROOT
