@<TRIPOS>MOLECULE
H7G
   33    34     1     0     0
SMALL
bcc


@<TRIPOS>ATOM
      1 C15          0.0000     0.0000     0.0000 ca         1 H7G       0.040000
      2 C17         -0.0070     0.0000     2.3970 ca         1 H7G      -0.023000
      3 C20          2.0730     0.0000     1.2020 ca         1 H7G       0.252100
      4 C22          2.8400     3.6780    -0.7830 ca         1 H7G      -0.113000
      5 C02          3.6210     6.8570    -0.6380 c          1 H7G       0.981600
      6 C05          2.1610     4.8810    -0.7860 ca         1 H7G       0.012700
      7 C06          1.0610     5.0530    -1.6050 ca         1 H7G      -0.106000
      8 C07          0.6350     4.0220    -2.4230 ca         1 H7G      -0.095000
      9 C08          1.3080     2.8170    -2.4250 ca         1 H7G      -0.185000
     10 C09          2.4150     2.6400    -1.6030 ca         1 H7G       0.024600
     11 C14          1.3810     0.0000     0.0000 ca         1 H7G      -0.168500
     12 C16         -0.6940    -0.0000     1.1970 ca         1 H7G      -0.157000
     13 C18          1.3760     0.0000     2.4030 ca         1 H7G      -0.141600
     14 N10          3.1030     1.4250    -1.6070 nu         1 H7G      -0.365500
     15 O01          3.9290     6.5760    -1.7720 o          1 H7G      -0.894800
     16 O03          4.1710     7.9240    -0.0390 o          1 H7G      -0.894800
     17 O12          3.2350    -1.0330    -1.4260 o          1 H7G      -0.600300
     18 O13          1.2840     0.0500    -2.5540 o          1 H7G      -0.600300
     19 O21          3.4330    -0.0020     1.2050 oh         1 H7G      -0.476100
     20 S11          2.2620    -0.0010    -1.5240 sy         1 H7G       1.038200
     21 Cl1          2.2380    -0.0010     3.9090 cl         1 H7G      -0.018400
     22 H1          -0.5410    -0.0000    -0.9390 ha         1 H7G       0.132000
     23 H2          -0.5520     0.0000     3.3320 ha         1 H7G       0.107000
     24 H3           3.7030     3.5440    -0.1410 ha         1 H7G       0.112000
     25 H4           3.0860     5.5980     0.9930 hc         1 H7G       0.012700
     26 H5           1.7710     6.6150     0.3870 hc         1 H7G       0.012700
     27 H6           0.5310     5.9980    -1.6050 ha         1 H7G       0.104000
     28 H7          -0.2280     4.1610    -3.0630 ha         1 H7G       0.087000
     29 H8           0.9740     2.0110    -3.0660 ha         1 H7G       0.145000
     30 H9          -1.7770     0.0000     1.1940 ha         1 H7G       0.109000
     31 H10          4.0970     1.4130    -1.7160 hn         1 H7G       0.347800
     32 H12          3.7450    -0.6940     1.7650 ho         1 H7G       0.417000
     33 C04          2.6220     6.0070     0.1040 c3         1 H7G      -0.096100
@<TRIPOS>BOND
     1     1    11 ar  
     2     1    12 ar  
     3     1    22 1   
     4     2    12 ar  
     5     2    13 ar  
     6     2    23 1   
     7     3    11 ar  
     8     3    13 ar  
     9     3    19 1   
    10     4     6 ar  
    11     4    10 ar  
    12     4    24 1   
    13     5    15 1   
    14     5    16 1   
    15     5    33 1   
    16     6     7 ar  
    17     6    33 1   
    18     7     8 ar  
    19     7    27 1   
    20     8     9 ar  
    21     8    28 1   
    22     9    10 ar  
    23     9    29 1   
    24    10    14 1   
    25    11    20 1   
    26    12    30 1   
    27    13    21 1   
    28    14    20 1   
    29    14    31 1   
    30    17    20 2   
    31    18    20 2   
    32    19    32 1   
    33    25    33 1   
    34    26    33 1   
@<TRIPOS>SUBSTRUCTURE
     1 H7G         1 TEMP              0 ****  ****    0 ROOT
