@<TRIPOS>MOLECULE
H7J
   55    58     1     0     0
SMALL
bcc


@<TRIPOS>ATOM
      1 O25          0.0000     0.0000     0.0000 o          1 H7J      -0.410000
      2 C18          1.2150     0.0000     0.0000 c2         1 H7J       0.278000
      3 C19          1.9540     0.0000     1.2800 ca         1 H7J      -0.137000
      4 C24          1.2590    -0.0010     2.4910 ca         1 H7J      -0.059500
      5 C23          1.9560    -0.0020     3.6830 ca         1 H7J      -0.112000
      6 C22          3.3390    -0.0010     3.6790 ca         1 H7J      -0.078000
      7 C21          4.0340    -0.0010     2.4820 ca         1 H7J      -0.112000
      8 C20          3.3500    -0.0070     1.2840 ca         1 H7J      -0.059500
      9 N17          1.8890     0.0010    -1.1670 ns         1 H7J      -0.001000
     10 C14          1.1560     0.0010    -2.4360 c3         1 H7J       0.079000
     11 C16          0.2770    -1.2480    -2.5170 c3         1 H7J      -0.140000
     12 C15          0.2770     1.2500    -2.5160 c3         1 H7J      -0.115000
     13 C27          1.1630     2.4970    -2.5600 c3         1 H7J      -0.122000
     14 C26         -0.5810     1.1900    -3.7820 c3         1 H7J      -0.122000
     15 C12          2.1360     0.0010    -3.5810 c2         1 H7J      -0.160000
     16 N11          2.2480     0.9310    -4.5370 n2         1 H7J      -0.026000
     17 N10          3.1970     0.5920    -5.3370 n2         1 H7J      -0.205000
     18 C13          3.0740    -0.9370    -3.8450 c2         1 H7J      -0.363000
     19 N            3.7160    -0.5250    -4.9630 na         1 H7J       0.383000
     20 C4           4.8170    -1.2250    -5.6270 c3         1 H7J      -0.126000
     21 C2           5.6820    -1.8990    -4.5930 c2         1 H7J       0.251000
     22 C            6.7790    -1.1250    -3.9090 c3         1 H7J      -0.153000
     23 O            5.4950    -3.0590    -4.3120 o          1 H7J      -0.280000
     24 C5           4.2490    -2.2800    -6.5810 DU         1 H7J      -0.105000
     25 C7           5.3750    -2.9150    -7.3550 c2         1 H7J      -0.212000
     26 C8           5.5260    -4.2170    -7.3420 c2         1 H7J      -0.149000
     27 C9           6.6510    -4.8520    -8.1170 DU         1 H7J      -0.110000
     28 H24          0.1760    -0.0020     2.4950 ha         1 H7J       0.113000
     29 H23          1.4180    -0.0020     4.6230 ha         1 H7J       0.105500
     30 H22          3.8810     0.0000     4.6170 ha         1 H7J       0.102000
     31 H21          5.1180    -0.0040     2.4870 ha         1 H7J       0.105500
     32 H20          3.8950    -0.0070     0.3480 ha         1 H7J       0.113000
     33 HN17         2.8890     0.0020    -1.1670 hn         1 H7J       0.092000
     34 H161        -0.6850    -1.0430    -2.0630 hc         1 H7J       0.060667
     35 H162         0.7580    -2.0630    -1.9900 hc         1 H7J       0.060667
     36 H163         0.1350    -1.5230    -3.5550 hc         1 H7J       0.060667
     37 H15         -0.3670     1.2960    -1.6460 hc         1 H7J       0.110000
     38 H271         0.7370     3.2650    -1.9260 hc         1 H7J       0.048000
     39 H272         2.1560     2.2460    -2.2070 hc         1 H7J       0.048000
     40 H273         1.2230     2.8620    -3.5780 hc         1 H7J       0.048000
     41 H261        -0.0800     0.5860    -4.5290 hc         1 H7J       0.048000
     42 H262        -0.7270     2.1920    -4.1670 hc         1 H7J       0.048000
     43 H263        -1.5420     0.7500    -3.5470 hc         1 H7J       0.048000
     44 H13          3.2690    -1.8400    -3.2780 h4         1 H7J       0.174000
     45 H4           5.4110    -0.5140    -6.1880 h1         1 H7J       0.121000
     46 H1           7.7420    -1.5080    -4.2250 hc         1 H7J       0.070333
     47 H2           6.7030    -0.0780    -4.1760 hc         1 H7J       0.070333
     48 H3           6.6820    -1.2330    -2.8360 hc         1 H7J       0.070333
     49 H51          3.7290    -3.0400    -6.0110 ha         1 H7J       0.083000
     50 H52          3.5580    -1.8090    -7.2700 ha         1 H7J       0.083000
     51 H7           4.3430    -2.8910    -7.6840 DU         1 H7J       0.148000
     52 H8           6.5570    -4.2410    -7.0130 DU         1 H7J       0.159000
     53 H91          7.0990    -5.6390    -7.5230 ha         1 H7J       0.058333
     54 H92          6.2640    -5.2710    -9.0380 ha         1 H7J       0.058333
     55 H93          7.3990    -4.1030    -8.3480 ha         1 H7J       0.058333
@<TRIPOS>BOND
     1     1     2 1   
     2     2     3 1   
     3     2     9 1   
     4     3     4 1   
     5     3     8 1   
     6     4     5 1   
     7     4    28 1   
     8     5     6 1   
     9     5    29 1   
    10     6     7 1   
    11     6    30 1   
    12     7     8 1   
    13     7    31 1   
    14     8    32 1   
    15     9    10 1   
    16     9    33 1   
    17    10    11 1   
    18    10    12 1   
    19    10    15 1   
    20    11    34 1   
    21    11    35 1   
    22    11    36 1   
    23    12    13 1   
    24    12    14 1   
    25    12    37 1   
    26    13    38 1   
    27    13    39 1   
    28    13    40 1   
    29    14    41 1   
    30    14    42 1   
    31    14    43 1   
    32    15    16 1   
    33    15    18 1   
    34    16    17 1   
    35    17    19 1   
    36    18    19 1   
    37    18    44 1   
    38    19    20 1   
    39    20    21 1   
    40    20    24 1   
    41    20    45 1   
    42    21    22 1   
    43    21    23 1   
    44    22    46 1   
    45    22    47 1   
    46    22    48 1   
    47    24    25 1   
    48    24    49 1   
    49    24    50 1   
    50    24    51 1   
    51    25    26 1   
    52    25    51 1   
    53    26    27 1   
    54    26    52 1   
    55    27    52 1   
    56    27    53 1   
    57    27    54 1   
    58    27    55 1   
@<TRIPOS>SUBSTRUCTURE
     1 H7J         1 TEMP              0 ****  ****    0 ROOT
