@<TRIPOS>MOLECULE
molecule
   55    56     1     0     0
SMALL
bcc


@<TRIPOS>ATOM
      1 O25          0.0000     0.0000     0.0000 o          1 H7J      -0.610100
      2 C18          1.2150     0.0000     0.0000 c          1 H7J       0.679700
      3 C19          1.9540     0.0000     1.2800 ca         1 H7J      -0.146600
      4 C24          1.2590    -0.0010     2.4910 ca         1 H7J      -0.086000
      5 C23          1.9560    -0.0020     3.6830 ca         1 H7J      -0.138500
      6 C22          3.3390    -0.0010     3.6790 ca         1 H7J      -0.106000
      7 C21          4.0340    -0.0010     2.4820 ca         1 H7J      -0.138500
      8 C20          3.3500    -0.0070     1.2840 ca         1 H7J      -0.086000
      9 N17          1.8890     0.0010    -1.1670 ns         1 H7J      -0.576900
     10 C14          1.1560     0.0010    -2.4360 c3         1 H7J       0.124100
     11 C16          0.2770    -1.2480    -2.5170 c3         1 H7J      -0.097100
     12 C15          0.2770     1.2500    -2.5160 c3         1 H7J      -0.080700
     13 C27          1.1630     2.4970    -2.5600 c3         1 H7J      -0.082600
     14 C26         -0.5810     1.1900    -3.7820 c3         1 H7J      -0.082600
     15 C12          2.1360     0.0010    -3.5810 cc         1 H7J       0.271600
     16 N11          2.2480     0.9310    -4.5370 nc         1 H7J      -0.344000
     17 N10          3.1970     0.5920    -5.3370 nd         1 H7J      -0.202800
     18 C13          3.0740    -0.9370    -3.8450 cd         1 H7J      -0.287600
     19 N            3.7160    -0.5250    -4.9630 na         1 H7J       0.129400
     20 C4           4.8170    -1.2250    -5.6270 c3         1 H7J      -0.030000
     21 C2           5.6820    -1.8990    -4.5930 c          1 H7J       0.553100
     22 C            6.7790    -1.1250    -3.9090 c3         1 H7J      -0.191100
     23 O            5.4950    -3.0590    -4.3120 o          1 H7J      -0.496100
     24 C5           4.2490    -2.2800    -6.5810 c3         1 H7J      -0.051200
     25 C7           5.3750    -2.9150    -7.3550 c2         1 H7J      -0.211200
     26 C8           5.5260    -4.2170    -7.3420 c2         1 H7J      -0.136200
     27 C9           6.6510    -4.8520    -8.1170 c3         1 H7J      -0.064900
     28 H24          0.1760    -0.0020     2.4950 ha         1 H7J       0.140000
     29 H23          1.4180    -0.0020     4.6230 ha         1 H7J       0.134000
     30 H22          3.8810     0.0000     4.6170 ha         1 H7J       0.132000
     31 H21          5.1180    -0.0040     2.4870 ha         1 H7J       0.134000
     32 H20          3.8950    -0.0070     0.3480 ha         1 H7J       0.140000
     33 HN17         2.8890    -0.0060    -1.1670 hn         1 H7J       0.313500
     34 H161         0.1100    -1.5050    -3.5560 hc         1 H7J       0.050033
     35 H162         0.7720    -2.0710    -2.0160 hc         1 H7J       0.050033
     36 H163        -0.6740    -1.0520    -2.0360 hc         1 H7J       0.050033
     37 H15         -0.3670     1.2950    -1.6460 hc         1 H7J       0.086700
     38 H271         0.7550     3.2530    -1.9010 hc         1 H7J       0.036200
     39 H272         1.1970     2.8800    -3.5720 hc         1 H7J       0.036200
     40 H273         2.1650     2.2390    -2.2370 hc         1 H7J       0.036200
     41 H261        -1.5240     0.7080    -3.5570 hc         1 H7J       0.036200
     42 H262        -0.0590     0.6250    -4.5450 hc         1 H7J       0.036200
     43 H263        -0.7660     2.1950    -4.1410 hc         1 H7J       0.036200
     44 H13          3.2690    -1.8400    -3.2780 h4         1 H7J       0.193000
     45 H4           5.4110    -0.5140    -6.1880 h1         1 H7J       0.101700
     46 H1           7.7380    -1.5700    -4.1480 hc         1 H7J       0.068367
     47 H2           6.7630    -0.0970    -4.2510 hc         1 H7J       0.068367
     48 H3           6.6260    -1.1520    -2.8370 hc         1 H7J       0.068367
     49 H51          3.7290    -3.0400    -6.0110 hc         1 H7J       0.072700
     50 H52          3.5580    -1.8090    -7.2700 hc         1 H7J       0.072700
     51 H7           6.0590    -2.2960    -7.9230 ha         1 H7J       0.126000
     52 H8           4.8410    -4.8360    -6.7750 ha         1 H7J       0.133000
     53 H91          6.5890    -4.5520    -9.1560 hc         1 H7J       0.044367
     54 H92          7.6000    -4.5310    -7.7040 hc         1 H7J       0.044367
     55 H93          6.5740    -5.9300    -8.0480 hc         1 H7J       0.044367
@<TRIPOS>BOND
     1     1     2 2
     2     2     3 1
     3     2     9 1
     4     3     4 ar
     5     3     8 ar
     6     4     5 ar
     7     4    28 1
     8     5     6 ar
     9     5    29 1
    10     6     7 ar
    11     6    30 1
    12     7     8 ar
    13     7    31 1
    14     8    32 1
    15     9    10 1
    16     9    33 1
    17    10    11 1
    18    10    12 1
    19    10    15 1
    20    11    34 1
    21    11    35 1
    22    11    36 1
    23    12    13 1
    24    12    14 1
    25    12    37 1
    26    13    38 1
    27    13    39 1
    28    13    40 1
    29    14    41 1
    30    14    42 1
    31    14    43 1
    32    15    16 1
    33    15    18 2
    34    16    17 2
    35    17    19 1
    36    18    19 1
    37    18    44 1
    38    19    20 1
    39    20    21 1
    40    20    24 1
    41    20    45 1
    42    21    22 1
    43    21    23 2
    44    22    46 1
    45    22    47 1
    46    22    48 1
    47    24    25 1
    48    24    49 1
    49    24    50 1
    50    25    26 2
    51    25    51 1
    52    26    27 1
    53    26    52 1
    54    27    53 1
    55    27    54 1
    56    27    55 1
@<TRIPOS>SUBSTRUCTURE
     1 H7J         1 TEMP              0 ****  ****    0 ROOT
