@<TRIPOS>MOLECULE
H7K
   56    60     1     0     0
SMALL
bcc


@<TRIPOS>ATOM
      1 O3          0.3110    0.1590    0.4060 o         1 H7K     -0.511000
      2 C21         1.4340    0.4000   -0.0400 c         1 H7K      0.561600
      3 O4          2.2460    1.2680    0.6370 os        1 H7K     -0.424900
      4 C22         1.7030    1.8260    1.8390 c3        1 H7K      0.124700
      5 C18         2.0250   -0.1470   -1.2500 cc        1 H7K      0.215200
      6 O2          3.3230    0.2620   -1.5860 os        1 H7K     -0.315800
      7 C19         1.5370   -1.0430   -2.1880 cd        1 H7K     -0.161300
      8 C20         2.5750   -1.2140   -3.1710 cd        1 H7K     -0.248300
      9 C17         3.6360   -0.4100   -2.7730 cc        1 H7K      0.330200
     10 C16         4.9300   -0.1550   -3.3250 cc        1 H7K     -0.105800
     11 N3          5.3780   -0.7480   -4.5370 na        1 H7K     -0.007600
     12 N2          6.6090   -0.3920   -4.8900 nc        1 H7K     -0.416800
     13 C15         7.0300    0.4600   -3.9250 cd        1 H7K      0.291800
     14 C11         8.1770    1.2590   -3.5550 ca        1 H7K     -0.042500
     15 C10         9.4110    1.4370   -4.1600 ca        1 H7K     -0.103000
     16 C9         10.3370    2.2920   -3.5500 ca        1 H7K     -0.093000
     17 C14         5.9860    0.6440   -2.8960 cd        1 H7K     -0.209600
     18 C13         6.4630    1.5740   -1.8460 c3        1 H7K      0.046200
     19 C12         7.8540    1.9300   -2.3260 ca        1 H7K     -0.075300
     20 C23         8.7750    2.7690   -1.7360 ca        1 H7K     -0.099000
     21 C8         10.0260    2.9500   -2.3580 ca        1 H7K     -0.201300
     22 C7         11.0400    3.8300   -1.7130 c3        1 H7K      0.177100
     23 N1         10.8720    5.2510   -2.1680 n4        1 H7K     -0.770000
     24 C4         11.8520    6.1980   -1.5210 c3        1 H7K      0.121500
     25 C3         11.4030    6.5850   -0.1070 c3        1 H7K     -0.095900
     26 C2         12.4240    7.5090    0.5240 c3        1 H7K     -0.092900
     27 C5         12.0280    7.4570   -2.3810 c3        1 H7K     -0.095900
     28 C6         13.0530    8.3740   -1.7450 c3        1 H7K     -0.092900
     29 C1         12.6480    8.7580   -0.3240 c3        1 H7K      0.135100
     30 O1         11.4230    9.4790   -0.3320 oh        1 H7K     -0.603800
     31 H23         2.5250    2.4850    2.2130 h1        1 H7K      0.057367
     32 H24         0.7810    2.4100    1.6030 h1        1 H7K      0.057367
     33 H25         1.4670    1.0100    2.5640 h1        1 H7K      0.057367
     34 H20         0.5600   -1.5260   -2.1850 ha        1 H7K      0.191000
     35 H21         2.5180   -1.8540   -4.0480 ha        1 H7K      0.172000
     36 H3          4.8580   -1.3860   -5.0980 hn        1 H7K      0.338700
     37 H17         9.6630    0.9150   -5.0960 ha        1 H7K      0.170000
     38 H16        11.3260    2.4260   -4.0150 ha        1 H7K      0.137000
     39 H18         6.4980    1.0820   -0.8390 hc        1 H7K      0.091700
     40 H19         5.8140    2.4850   -1.7690 hc        1 H7K      0.091700
     41 H22         8.5460    3.2750   -0.7860 ha        1 H7K      0.139000
     42 H15        12.0860    3.5060   -1.9810 hx        1 H7K      0.104200
     43 H14        10.9320    3.8150   -0.5910 hx        1 H7K      0.104200
     44 H13         9.9160    5.5580   -1.9540 hn        1 H7K      0.447300
     45 H2         12.8400    5.6500   -1.4630 hx        1 H7K      0.100700
     46 H8         11.2860    5.6710    0.5310 hc        1 H7K      0.070450
     47 H7         10.4160    7.1210   -0.1510 hc        1 H7K      0.070450
     48 H6         13.4040    6.9820    0.6540 hc        1 H7K      0.072700
     49 H5         12.0510    7.8160    1.5370 hc        1 H7K      0.072700
     50 H9         12.3640    7.1830   -3.4150 hc        1 H7K      0.070450
     51 H10        11.0510    8.0080   -2.4540 hc        1 H7K      0.070450
     52 H12        13.1430    9.2990   -2.3730 hc        1 H7K      0.072700
     53 H11        14.0570    7.8770   -1.7180 hc        1 H7K      0.072700
     54 H1         13.4620    9.3830    0.1410 h1        1 H7K      0.065700
     55 H4         11.6260   10.3830   -0.6010 ho        1 H7K      0.419000
     56 H121       10.9910    5.2880   -3.1870 hn        1 H7K      0.447300
@<TRIPOS>BOND
     1    1    2 2   
     2    2    3 1   
     3    2    5 1   
     4    3    4 1   
     5    4   31 1   
     6    4   32 1   
     7    4   33 1   
     8    5    6 1   
     9    5    7 2   
    10    6    9 1   
    11    7    8 1   
    12    7   34 1   
    13    8    9 2   
    14    8   35 1   
    15    9   10 1   
    16   10   11 1   
    17   10   17 2   
    18   11   12 1   
    19   11   36 1   
    20   12   13 2   
    21   13   14 1   
    22   13   17 1   
    23   14   15 ar  
    24   14   19 ar  
    25   15   16 ar  
    26   15   37 1   
    27   16   21 ar  
    28   16   38 1   
    29   17   18 1   
    30   18   19 1   
    31   18   39 1   
    32   18   40 1   
    33   19   20 ar  
    34   20   21 ar  
    35   20   41 1   
    36   21   22 1   
    37   22   23 1   
    38   22   42 1   
    39   22   43 1   
    40   23   24 1   
    41   23   44 1   
    42   23   56 1   
    43   24   25 1   
    44   24   27 1   
    45   24   45 1   
    46   25   26 1   
    47   25   46 1   
    48   25   47 1   
    49   26   29 1   
    50   26   48 1   
    51   26   49 1   
    52   27   28 1   
    53   27   50 1   
    54   27   51 1   
    55   28   29 1   
    56   28   52 1   
    57   28   53 1   
    58   29   30 1   
    59   29   54 1   
    60   30   55 1   
@<TRIPOS>SUBSTRUCTURE
     1 H7K         1 TEMP              0 ****  ****    0 ROOT
