@<TRIPOS>MOLECULE
H7M
   38    40     1     0     0
SMALL
bcc


@<TRIPOS>ATOM
      1 C10          0.0000     0.0000     0.0000 ca         1 H7M      -0.148000
      2 C13          1.3750    -0.0000     2.4070 ca         1 H7M       0.168600
      3 C20         -2.3860    -0.0200     5.7440 ca         1 H7M      -0.152000
      4 C21         -2.3310     1.2750     6.2250 ca         1 H7M      -0.014000
      5 C22         -1.1170     1.9310     6.3080 ca         1 H7M      -0.146600
      6 C24          0.0470     1.2890     5.9080 ca         1 H7M       0.246100
      7 C03          5.1100    -3.5550     2.1780 cc         1 H7M       0.195400
      8 C06          4.1450    -1.6780     1.6360 cc         1 H7M       0.292800
      9 C08          2.0760     0.0000     1.2010 ca         1 H7M      -0.007100
     10 C09          1.3820     0.0000     0.0000 ca         1 H7M       0.001000
     11 C11         -0.6950    -0.0010     1.1950 ca         1 H7M      -0.021000
     12 C12         -0.0120    -0.0000     2.3980 ca         1 H7M      -0.197000
     13 C18         -0.0120    -0.0100     5.4250 ca         1 H7M      -0.192500
     14 C19         -1.2270    -0.6640     5.3490 ca         1 H7M       0.032000
     15 N02          5.3630    -2.2430     1.8860 na         1 H7M       0.151300
     16 N04          3.8210    -3.7290     2.0950 nd         1 H7M      -0.304000
     17 N05          3.2460    -2.6260     1.7730 nd         1 H7M      -0.311000
     18 N14          2.0680    -0.0000     3.6230 nu         1 H7M      -0.388500
     19 O16          2.3980    -0.6610     5.9770 o          1 H7M      -0.565800
     20 O17          1.0660    -2.1060     4.4320 o          1 H7M      -0.565800
     21 S07          3.8380     0.0020     1.2040 ss         1 H7M      -0.351200
     22 S15          1.4630    -0.8310     4.9210 sy         1 H7M       1.039200
     23 Cl2         -1.0470     3.5580     6.9120 cl         1 H7M      -0.004400
     24 H1          -0.5400    -0.0000    -0.9390 ha         1 H7M       0.108000
     25 H2          -3.3370    -0.5330     5.6820 ha         1 H7M       0.117000
     26 H3          -3.2390     1.7760     6.5360 ha         1 H7M       0.114000
     27 H4           6.6710    -0.8290     1.0690 h1         1 H7M       0.029033
     28 H5           6.8640    -1.1120     2.8050 h1         1 H7M       0.029033
     29 H6           7.4400    -2.3160     1.6430 h1         1 H7M       0.029033
     30 H7           5.8450    -4.3100     2.4310 h5         1 H7M       0.032100
     31 H8           1.9240     0.0000    -0.9380 ha         1 H7M       0.114000
     32 H9          -1.7780    -0.0010     1.1900 ha         1 H7M       0.099000
     33 H10         -0.5600    -0.0010     3.3320 ha         1 H7M       0.132000
     34 H11         -1.2730    -1.6780     4.9720 ha         1 H7M       0.140000
     35 H12          2.9130     0.5270     3.7160 hn         1 H7M       0.364800
     36 H13          1.3310     2.3240     6.8390 ho         1 H7M       0.427000
     37 O25          1.2410     1.9310     5.9870 oh         1 H7M      -0.487100
     38 C01          6.6700    -1.5820     1.8480 c3         1 H7M      -0.001400
@<TRIPOS>BOND
     1     1    10 ar  
     2     1    11 ar  
     3     1    24 1   
     4     2     9 ar  
     5     2    12 ar  
     6     2    18 1   
     7     3     4 ar  
     8     3    14 ar  
     9     3    25 1   
    10     4     5 ar  
    11     4    26 1   
    12     5     6 ar  
    13     5    23 1   
    14     6    13 ar  
    15     6    37 1   
    16     7    15 1   
    17     7    16 2   
    18     7    30 1   
    19     8    15 1   
    20     8    17 2   
    21     8    21 1   
    22     9    10 ar  
    23     9    21 1   
    24    10    31 1   
    25    11    12 ar  
    26    11    32 1   
    27    12    33 1   
    28    13    14 ar  
    29    13    22 1   
    30    14    34 1   
    31    15    38 1   
    32    16    17 1   
    33    18    22 1   
    34    18    35 1   
    35    19    22 2   
    36    20    22 2   
    37    27    38 1   
    38    28    38 1   
    39    29    38 1   
    40    36    37 1   
@<TRIPOS>SUBSTRUCTURE
     1 H7M         1 TEMP              0 ****  ****    0 ROOT
