@<TRIPOS>MOLECULE
molecule
   53    56     1     0     0
SMALL
bcc


@<TRIPOS>ATOM
      1 C5           0.0000     0.0000     0.0000 c3         1 H7P      -0.033400
      2 C6           1.5300     0.0000     0.0000 c3         1 H7P      -0.074900
      3 C7           2.0400     0.0000     1.4420 c3         1 H7P      -0.085400
      4 C2           1.5300    -1.2490     2.1650 c3         1 H7P      -0.048700
      5 C3           0.0000    -1.2490     2.1650 c3         1 H7P      -0.085400
      6 C4          -0.5100    -1.2490     0.7220 c3         1 H7P      -0.074900
      7 C1           2.0400    -2.4990     1.4430 c3         1 H7P      -0.149700
      8 C8          -0.5030    -0.0010    -1.4200 ca         1 H7P      -0.025300
      9 C9          -1.3130     1.0450    -1.9010 ca         1 H7P      -0.130300
     10 C10         -1.6810     2.1220    -1.0790 ca         1 H7P      -0.159000
     11 C11         -2.4680     3.1160    -1.5820 ca         1 H7P       0.134900
     12 C12         -2.9110     3.0750    -2.9050 ca         1 H7P      -0.155000
     13 C13         -2.5720     2.0470    -3.7280 ca         1 H7P      -0.137300
     14 C14         -1.7640     1.0030    -3.2440 ca         1 H7P       0.406600
     15 C15         -0.6560    -0.9930    -3.5880 ca         1 H7P       0.432200
     16 C16         -0.1800    -1.0130    -2.2790 ca         1 H7P      -0.253300
     17 C17          1.5370    -3.7290     2.1540 c          1 H7P       0.665100
     18 C18          1.3190    -6.0940     2.2950 ca         1 H7P       0.054600
     19 C19          1.0170    -7.2080     1.5240 ca         1 H7P      -0.138000
     20 C20          0.4800    -8.3330     2.1200 ca         1 H7P      -0.105000
     21 C21          0.2440    -8.3500     3.4840 ca         1 H7P       0.012400
     22 C22          0.5450    -7.2410     4.2530 ca         1 H7P      -0.105000
     23 C23          1.0880    -6.1150     3.6640 ca         1 H7P      -0.138000
     24 Cl          -0.4310    -9.7650     4.2290 cl         1 H7P      -0.111400
     25 O            0.8410    -3.6170     3.1400 o          1 H7P      -0.593100
     26 C            3.5690    -2.4980     1.4430 c3         1 H7P      -0.093100
     27 N           -1.4160    -0.0200    -4.0310 nb         1 H7P      -0.679000
     28 F           -2.8210     4.1520    -0.7900 f          1 H7P      -0.139900
     29 H1          -0.3590     0.8830     0.5140 hc         1 H7P       0.065700
     30 H2           1.8900    -0.8860    -0.5090 hc         1 H7P       0.045200
     31 H3           1.8900     0.8860    -0.5090 hc         1 H7P       0.045200
     32 H4           3.1240    -0.0030     1.4410 hc         1 H7P       0.056950
     33 H5           1.6770     0.8840     1.9520 hc         1 H7P       0.056950
     34 H6           1.8890    -1.2450     3.1870 hc         1 H7P       0.067700
     35 H7          -0.3600    -0.3630     2.6730 hc         1 H7P       0.056950
     36 H8          -0.3600    -2.1350     2.6730 hc         1 H7P       0.056950
     37 H9          -0.1470    -2.1330     0.2120 hc         1 H7P       0.045200
     38 H10         -1.5930    -1.2460     0.7240 hc         1 H7P       0.045200
     39 H11          1.6780    -2.4990     0.4220 hc         1 H7P       0.074700
     40 H12          2.4710    -5.0450     0.9040 hn         1 H7P       0.326500
     41 H13         -1.3420     2.1630    -0.0510 ha         1 H7P       0.152000
     42 H14         -3.5350     3.8760    -3.2830 ha         1 H7P       0.148000
     43 H15         -2.9250     2.0310    -4.7520 ha         1 H7P       0.156000
     44 H16         -0.3910    -1.8020    -4.2580 h4         1 H7P       0.023100
     45 H17          0.4460    -1.8300    -1.9430 ha         1 H7P       0.136000
     46 H18          1.2010    -7.1960     0.4570 ha         1 H7P       0.153000
     47 H19          0.2430    -9.2030     1.5190 ha         1 H7P       0.146500
     48 H20          0.3620    -7.2570     5.3210 ha         1 H7P       0.146500
     49 H21          1.3240    -5.2470     4.2680 ha         1 H7P       0.153000
     50 H22          3.9300    -2.2840     0.4440 hc         1 H7P       0.043367
     51 H23          3.9300    -1.7400     2.1270 hc         1 H7P       0.043367
     52 H24          3.9310    -3.4700     1.7560 hc         1 H7P       0.043367
     53 N1           1.8640    -4.9530     1.6940 ns         1 H7P      -0.479100
@<TRIPOS>BOND
     1    26     7 1
     2     7    17 1
     3     7     4 1
     4    17    25 2
     5    17    53 1
     6     4     5 1
     7     4     3 1
     8    53    18 1
     9     5     6 1
    10    19    18 ar
    11    19    20 ar
    12    18    23 ar
    13     3     2 1
    14    20    21 ar
    15    23    22 ar
    16     6     1 1
    17    21    22 ar
    18    21    24 1
    19    28    11 1
    20     2     1 1
    21     1     8 1
    22    10    11 ar
    23    10     9 ar
    24    11    12 ar
    25     8     9 ar
    26     8    16 ar
    27     9    14 ar
    28    12    13 ar
    29    16    15 ar
    30    14    13 ar
    31    14    27 ar
    32    15    27 ar
    33     1    29 1
    34     2    30 1
    35     2    31 1
    36     3    32 1
    37     3    33 1
    38     4    34 1
    39     5    35 1
    40     5    36 1
    41     6    37 1
    42     6    38 1
    43     7    39 1
    44    53    40 1
    45    10    41 1
    46    12    42 1
    47    13    43 1
    48    15    44 1
    49    16    45 1
    50    19    46 1
    51    20    47 1
    52    22    48 1
    53    23    49 1
    54    26    50 1
    55    26    51 1
    56    26    52 1
@<TRIPOS>SUBSTRUCTURE
     1 H7P         1 TEMP              0 ****  ****    0 ROOT
