@<TRIPOS>MOLECULE
H7P
   53    56     1     0     0
SMALL
bcc


@<TRIPOS>ATOM
      1 C5           0.0000     0.0000     0.0000 c3         1 H7P      -0.008400
      2 C6           1.5300     0.0000     0.0000 c3         1 H7P      -0.028400
      3 C7           2.0400     0.0000     1.4420 c3         1 H7P      -0.043400
      4 C2           1.5300    -1.2490     2.1650 c3         1 H7P      -0.021700
      5 C3           0.0000    -1.2490     2.1650 c3         1 H7P      -0.043400
      6 C4          -0.5100    -1.2490     0.7220 c3         1 H7P      -0.028400
      7 C1           2.0400    -2.4990     1.4430 c3         1 H7P      -0.142700
      8 C8          -0.5030    -0.0010    -1.4200 ca         1 H7P      -0.033300
      9 C9          -1.3130     1.0450    -1.9010 ca         1 H7P      -0.120300
     10 C10         -1.6810     2.1220    -1.0790 ca         1 H7P      -0.131000
     11 C11         -2.4680     3.1160    -1.5820 ca         1 H7P       0.110900
     12 C12         -2.9110     3.0750    -2.9050 ca         1 H7P      -0.125000
     13 C13         -2.5720     2.0470    -3.7280 ca         1 H7P      -0.110300
     14 C14         -1.7640     1.0030    -3.2440 ca         1 H7P       0.362600
     15 C15         -0.6560    -0.9930    -3.5880 ca         1 H7P       0.413200
     16 C16         -0.1800    -1.0130    -2.2790 ca         1 H7P      -0.225300
     17 C17          1.5370    -3.7290     2.1540 c          1 H7P       0.569100
     18 C18          1.3190    -6.0940     2.2950 ca         1 H7P      -0.092400
     19 C19          1.0170    -7.2080     1.5240 ca         1 H7P      -0.110000
     20 C20          0.4800    -8.3330     2.1200 ca         1 H7P      -0.080500
     21 C21          0.2440    -8.3500     3.4840 ca         1 H7P      -0.046600
     22 C22          0.5450    -7.2410     4.2530 ca         1 H7P      -0.080500
     23 C23          1.0880    -6.1150     3.6640 ca         1 H7P      -0.110000
     24 Cl          -0.4310    -9.7650     4.2290 cl         1 H7P      -0.028400
     25 O            0.8410    -3.6170     3.1400 o          1 H7P      -0.630100
     26 C            3.5690    -2.4980     1.4430 c3         1 H7P      -0.000100
     27 N           -1.4160    -0.0200    -4.0310 nb         1 H7P      -0.568000
     28 F           -2.8210     4.1520    -0.7900 f          1 H7P      -0.128900
     29 H1          -0.3590     0.8830     0.5140 hc         1 H7P       0.045700
     30 H2           1.8900    -0.8860    -0.5090 hc         1 H7P       0.019950
     31 H3           1.8900     0.8860    -0.5090 hc         1 H7P       0.019950
     32 H4           3.1240    -0.0030     1.4410 hc         1 H7P       0.032450
     33 H5           1.6770     0.8840     1.9520 hc         1 H7P       0.032450
     34 H6           1.8890    -1.2450     3.1870 hc         1 H7P       0.043700
     35 H7          -0.3600    -0.3630     2.6730 hc         1 H7P       0.032450
     36 H8          -0.3600    -2.1350     2.6730 hc         1 H7P       0.032450
     37 H9          -0.1470    -2.1330     0.2120 hc         1 H7P       0.019950
     38 H10         -1.5930    -1.2460     0.7240 hc         1 H7P       0.019950
     39 H11          1.6780    -2.4990     0.4220 hc         1 H7P       0.056700
     40 H12          2.4710    -5.0450     0.9040 hn         1 H7P       0.170500
     41 H13         -1.3420     2.1630    -0.0510 ha         1 H7P       0.133000
     42 H14         -3.5350     3.8760    -3.2830 ha         1 H7P       0.119000
     43 H15         -2.9250     2.0310    -4.7520 ha         1 H7P       0.121000
     44 H16         -0.3910    -1.8020    -4.2580 h4         1 H7P      -0.021900
     45 H17          0.4460    -1.8300    -1.9430 ha         1 H7P       0.116000
     46 H18          1.2010    -7.1960     0.4570 ha         1 H7P       0.128000
     47 H19          0.2430    -9.2030     1.5190 ha         1 H7P       0.115500
     48 H20          0.3620    -7.2570     5.3210 ha         1 H7P       0.115500
     49 H21          1.3240    -5.2470     4.2680 ha         1 H7P       0.128000
     50 H22          3.9300    -2.2840     0.4440 hc         1 H7P       0.011033
     51 H23          3.9300    -1.7400     2.1270 hc         1 H7P       0.011033
     52 H24          3.9310    -3.4700     1.7560 hc         1 H7P       0.011033
     53 N1           1.8640    -4.9530     1.6940 ns         1 H7P      -0.036100
@<TRIPOS>BOND
     1     1     2 1   
     2     1     6 1   
     3     1     8 1   
     4     1    29 1   
     5     2     3 1   
     6     2    30 1   
     7     2    31 1   
     8     3     4 1   
     9     3    32 1   
    10     3    33 1   
    11     4     5 1   
    12     4     7 1   
    13     4    34 1   
    14     5     6 1   
    15     5    35 1   
    16     5    36 1   
    17     6    37 1   
    18     6    38 1   
    19     7    17 1   
    20     7    26 1   
    21     7    39 1   
    22     8     9 ar  
    23     8    16 ar  
    24     9    10 ar  
    25     9    14 ar  
    26    10    11 ar  
    27    10    41 1   
    28    11    12 ar  
    29    11    28 1   
    30    12    13 ar  
    31    12    42 1   
    32    13    14 ar  
    33    13    43 1   
    34    14    27 ar  
    35    15    16 ar  
    36    15    27 ar  
    37    15    44 1   
    38    16    45 1   
    39    17    25 2   
    40    17    53 1   
    41    18    19 ar  
    42    18    23 ar  
    43    18    53 1   
    44    19    20 ar  
    45    19    46 1   
    46    20    21 ar  
    47    20    47 1   
    48    21    22 ar  
    49    21    24 1   
    50    22    23 ar  
    51    22    48 1   
    52    23    49 1   
    53    26    50 1   
    54    26    51 1   
    55    26    52 1   
    56    40    53 1   
@<TRIPOS>SUBSTRUCTURE
     1 H7P         1 TEMP              0 ****  ****    0 ROOT
