@<TRIPOS>MOLECULE
molecule
   66    71     1     0     0
SMALL
bcc


@<TRIPOS>ATOM
      1 N1           0.0000     0.0000     0.0000 ne         1 H7Q      -0.440100
      2 C4           2.5860     1.2430     1.7570 c3         1 H7Q      -0.068900
      3 C5           1.2990     0.0000     0.0000 c2         1 H7Q       0.299200
      4 C6          -0.5510    -0.0010     1.2530 ca         1 H7Q       0.051400
      5 C7          -1.8860    -0.0000     1.6720 ca         1 H7Q      -0.104000
      6 C8          -2.1890    -0.0020     3.0200 ca         1 H7Q       0.124100
      7 C10          0.1540    -0.0080     3.5610 ca         1 H7Q      -0.193000
      8 C13         -0.9170    -0.0170     7.6470 cx         1 H7Q      -0.150700
      9 C15          0.1030    -0.1400     8.7810 cx         1 H7Q      -0.122400
     10 C17         -5.8740     0.0080     3.0330 c3         1 H7Q      -0.079400
     11 C20         -9.3180     2.0850     1.9850 ca         1 H7Q      -0.129800
     12 C21         -9.5770     3.4270     1.7850 ca         1 H7Q      -0.106000
     13 C22        -10.2700     3.8380     0.6620 ca         1 H7Q      -0.122500
     14 C24        -10.4450     1.5620    -0.0620 ca         1 H7Q      -0.106000
     15 C26         -9.3240    -0.2200     1.5320 c3         1 H7Q       0.192600
     16 N            2.1100     0.0020    -1.1020 nz         1 H7Q      -0.686600
     17 C            4.0480     0.7350     1.6740 c3         1 H7Q      -0.090400
     18 C1           3.9540    -0.6910     2.2710 c3         1 H7Q      -0.090400
     19 C11          0.4600    -0.0040     2.2220 ca         1 H7Q      -0.058300
     20 C12         -0.3810    -0.0150     6.2140 c3         1 H7Q       0.165400
     21 C14         -0.5970     1.1960     8.5220 cx         1 H7Q      -0.122400
     22 C16         -4.4840     0.0050     2.3940 c3         1 H7Q       0.128400
     23 C18         -6.9400     0.0130     1.9340 c3         1 H7Q       0.149800
     24 C19         -8.5990     1.3520     3.0950 c3         1 H7Q       0.192600
     25 C2           2.6000    -1.2290     1.7570 c3         1 H7Q      -0.068900
     26 C23        -10.7040     2.9060    -0.2620 ca         1 H7Q      -0.122500
     27 C25         -9.7470     1.1510     1.0560 ca         1 H7Q      -0.129800
     28 C3           1.7450     0.0000     1.4400 c3         1 H7Q      -0.085000
     29 C9          -1.1720    -0.0070     3.9710 ca         1 H7Q       0.202100
     30 N2          -8.2750     0.0140     2.5470 n3         1 H7Q      -0.684600
     31 O1          -3.4890     0.0010     3.4210 os         1 H7Q      -0.294900
     32 H6           2.4110     2.0170     1.0200 hc         1 H7Q       0.063200
     33 H7           2.3670     1.6030     2.7550 hc         1 H7Q       0.063200
     34 H10         -2.6820     0.0030     0.9380 ha         1 H7Q       0.169000
     35 H11          0.9480    -0.0120     4.2980 ha         1 H7Q       0.159000
     36 H14         -1.8760    -0.4800     7.8470 hc         1 H7Q       0.108700
     37 H17          1.1400    -0.1920     8.4740 hc         1 H7Q       0.080950
     38 H18         -0.2340    -0.6820     9.6570 hc         1 H7Q       0.080950
     39 H22         -5.9920    -0.8780     3.6450 hc         1 H7Q       0.071200
     40 H21         -5.9870     0.8910     3.6490 hc         1 H7Q       0.071200
     41 H30        -10.7850     0.8320    -0.7870 ha         1 H7Q       0.131500
     42 H32        -10.1660    -0.7350     1.9780 h1         1 H7Q       0.067450
     43 H31         -8.9210    -0.7930     0.7050 h1         1 H7Q       0.067450
     44 H9           1.5770    -0.2540    -1.9090 hn         1 H7Q       0.463800
     45 H8           2.8530    -0.6560    -0.9700 hn         1 H7Q       0.463800
     46 H1           4.7030     1.3570     2.2720 hc         1 H7Q       0.059950
     47 H            4.3810     0.6960     0.6440 hc         1 H7Q       0.059950
     48 H3           4.7680    -1.3070     1.9080 hc         1 H7Q       0.059950
     49 H2           3.9560    -0.6470     3.3540 hc         1 H7Q       0.059950
     50 H13          0.2220    -0.9000     6.0520 h1         1 H7Q       0.041200
     51 H12          0.2250     0.8690     6.0570 h1         1 H7Q       0.041200
     52 H16         -1.3610     1.4700     9.2390 hc         1 H7Q       0.080950
     53 H15          0.0140     1.9600     8.0570 hc         1 H7Q       0.080950
     54 H19         -4.3720    -0.8780     1.7770 h1         1 H7Q       0.037700
     55 H20         -4.3670     0.8910     1.7810 h1         1 H7Q       0.037700
     56 H24         -6.8220     0.8980     1.3220 h1         1 H7Q       0.039700
     57 H23         -6.8260    -0.8710     1.3170 h1         1 H7Q       0.039700
     58 H25         -9.2460     1.2540     3.9580 h1         1 H7Q       0.067450
     59 H26         -7.6890     1.8760     3.3590 h1         1 H7Q       0.067450
     60 H4           2.7520    -1.8170     0.8600 hc         1 H7Q       0.063200
     61 H5           2.1230    -1.8250     2.5240 hc         1 H7Q       0.063200
     62 H29        -11.2480     3.2280    -1.1420 ha         1 H7Q       0.136000
     63 O           -1.4770    -0.0100     5.2960 os         1 H7Q      -0.278900
     64 H27         -9.2370     4.1570     2.5090 ha         1 H7Q       0.131500
     65 HN3          2.5060     0.9130    -1.2230 hn         1 H7Q       0.463800
     66 H28        -10.4730     4.8910     0.5060 ha         1 H7Q       0.136000
@<TRIPOS>BOND
     1    25    18 1
     2    25    28 1
     3    16     3 1
     4     3     1 2
     5     3    28 1
     6     1     4 1
     7    18    17 1
     8     4     5 ar
     9     4    19 ar
    10    28    19 1
    11    28     2 1
    12    21     8 1
    13    21     9 1
    14     5     6 ar
    15    19     7 ar
    16     8     9 1
    17     8    20 1
    18     6    31 1
    19     6    29 ar
    20     7    29 ar
    21    17     2 1
    22    31    22 1
    23    29    63 1
    24    22    10 1
    25    63    20 1
    26    10    23 1
    27    14    27 ar
    28    14    26 ar
    29    15    27 1
    30    15    30 1
    31    27    11 ar
    32    26    13 ar
    33    30    23 1
    34    30    24 1
    35    11    24 1
    36    11    12 ar
    37    13    12 ar
    38     2    32 1
    39     2    33 1
    40     5    34 1
    41     7    35 1
    42     8    36 1
    43     9    37 1
    44     9    38 1
    45    10    39 1
    46    10    40 1
    47    12    64 1
    48    13    66 1
    49    14    41 1
    50    15    42 1
    51    15    43 1
    52    16    44 1
    53    16    45 1
    54    17    46 1
    55    17    47 1
    56    18    48 1
    57    18    49 1
    58    20    50 1
    59    20    51 1
    60    21    52 1
    61    21    53 1
    62    22    54 1
    63    22    55 1
    64    23    56 1
    65    23    57 1
    66    24    58 1
    67    24    59 1
    68    25    60 1
    69    25    61 1
    70    26    62 1
    71    65    16 1
@<TRIPOS>SUBSTRUCTURE
     1 H7Q         1 TEMP              0 ****  ****    0 ROOT
