@<TRIPOS>MOLECULE
H7Q
   66    71     1     0     0
SMALL
bcc


@<TRIPOS>ATOM
      1 N1           0.0000     0.0000     0.0000 ne         1 H7Q      -0.232100
      2 C4           2.5860     1.2430     1.7570 c3         1 H7Q      -0.016400
      3 C5           1.2990     0.0000     0.0000 c2         1 H7Q      -0.050800
      4 C6          -0.5510    -0.0010     1.2530 ca         1 H7Q      -0.029600
      5 C7          -1.8860    -0.0000     1.6720 ca         1 H7Q      -0.074000
      6 C8          -2.1890    -0.0020     3.0200 ca         1 H7Q       0.120100
      7 C10          0.1540    -0.0080     3.5610 ca         1 H7Q      -0.179000
      8 C13         -0.9170    -0.0170     7.6470 cx         1 H7Q      -0.138700
      9 C15          0.1030    -0.1400     8.7810 cx         1 H7Q      -0.061900
     10 C17         -5.8740     0.0080     3.0330 c3         1 H7Q      -0.039400
     11 C20         -9.3180     2.0850     1.9850 ca         1 H7Q      -0.136800
     12 C21         -9.5770     3.4270     1.7850 ca         1 H7Q      -0.071000
     13 C22        -10.2700     3.8380     0.6620 ca         1 H7Q      -0.096000
     14 C24        -10.4450     1.5620    -0.0620 ca         1 H7Q      -0.071000
     15 C26         -9.3240    -0.2200     1.5320 c3         1 H7Q       0.217100
     16 N            2.1100     0.0020    -1.1020 nz         1 H7Q       0.284400
     17 C            4.0480     0.7350     1.6740 c3         1 H7Q      -0.026400
     18 C1           3.9540    -0.6910     2.2710 c3         1 H7Q      -0.026400
     19 C11          0.4600    -0.0040     2.2220 ca         1 H7Q      -0.049300
     20 C12         -0.3810    -0.0150     6.2140 c3         1 H7Q       0.240400
     21 C14         -0.5970     1.1960     8.5220 cx         1 H7Q      -0.061900
     22 C16         -4.4840     0.0050     2.3940 c3         1 H7Q       0.198400
     23 C18         -6.9400     0.0130     1.9340 c3         1 H7Q       0.153800
     24 C19         -8.5990     1.3520     3.0950 c3         1 H7Q       0.217100
     25 C2           2.6000    -1.2290     1.7570 c3         1 H7Q      -0.016400
     26 C23        -10.7040     2.9060    -0.2620 ca         1 H7Q      -0.096000
     27 C25         -9.7470     1.1510     1.0560 ca         1 H7Q      -0.136800
     28 C3           1.7450     0.0000     1.4400 c3         1 H7Q      -0.035000
     29 C9          -1.1720    -0.0070     3.9710 ca         1 H7Q       0.220100
     30 N2          -8.2750     0.0140     2.5470 n3         1 H7Q      -0.533600
     31 O1          -3.4890     0.0010     3.4210 os         1 H7Q      -0.273900
     32 H6           2.4110     2.0170     1.0200 hc         1 H7Q       0.032200
     33 H7           2.3670     1.6030     2.7550 hc         1 H7Q       0.032200
     34 H10         -2.6820     0.0030     0.9380 ha         1 H7Q       0.141000
     35 H11          0.9480    -0.0120     4.2980 ha         1 H7Q       0.141000
     36 H14         -1.8760    -0.4800     7.8470 hc         1 H7Q       0.080700
     37 H17          1.1400    -0.1920     8.4740 hc         1 H7Q       0.049200
     38 H18         -0.2340    -0.6820     9.6570 hc         1 H7Q       0.049200
     39 H22         -5.9920    -0.8780     3.6450 hc         1 H7Q       0.038200
     40 H21         -5.9870     0.8910     3.6490 hc         1 H7Q       0.038200
     41 H30        -10.7850     0.8320    -0.7870 ha         1 H7Q       0.104500
     42 H32        -10.1660    -0.7350     1.9780 h1         1 H7Q       0.030950
     43 H31         -8.9210    -0.7930     0.7050 h1         1 H7Q       0.030950
     44 H9           1.5770    -0.2540    -1.9090 hn         1 H7Q       0.199467
     45 H8           2.8530    -0.6560    -0.9700 hn         1 H7Q       0.199467
     46 H1           4.7030     1.3570     2.2720 hc         1 H7Q       0.026950
     47 H            4.3810     0.6960     0.6440 hc         1 H7Q       0.026950
     48 H3           4.7680    -1.3070     1.9080 hc         1 H7Q       0.026950
     49 H2           3.9560    -0.6470     3.3540 hc         1 H7Q       0.026950
     50 H13          0.2220    -0.9000     6.0520 h1         1 H7Q       0.005200
     51 H12          0.2250     0.8690     6.0570 h1         1 H7Q       0.005200
     52 H16         -1.3610     1.4700     9.2390 hc         1 H7Q       0.049200
     53 H15          0.0140     1.9600     8.0570 hc         1 H7Q       0.049200
     54 H19         -4.3720    -0.8780     1.7770 h1         1 H7Q       0.002200
     55 H20         -4.3670     0.8910     1.7810 h1         1 H7Q       0.002200
     56 H24         -6.8220     0.8980     1.3220 h1         1 H7Q       0.012700
     57 H23         -6.8260    -0.8710     1.3170 h1         1 H7Q       0.012700
     58 H25         -9.2460     1.2540     3.9580 h1         1 H7Q       0.030950
     59 H26         -7.6890     1.8760     3.3590 h1         1 H7Q       0.030950
     60 H4           2.7520    -1.8170     0.8600 hc         1 H7Q       0.032200
     61 H5           2.1230    -1.8250     2.5240 hc         1 H7Q       0.032200
     62 H29        -11.2480     3.2280    -1.1420 ha         1 H7Q       0.107500
     63 O           -1.4770    -0.0100     5.2960 os         1 H7Q      -0.259900
     64 H27         -9.2370     4.1570     2.5090 ha         1 H7Q       0.104500
     65 HN3          2.5060     0.9130    -1.2230 hn         1 H7Q       0.199467
     66 H28        -10.4730     4.8910     0.5060 ha         1 H7Q       0.107500
@<TRIPOS>BOND
     1     1     3 2   
     2     1     4 1   
     3     2    17 1   
     4     2    28 1   
     5     2    32 1   
     6     2    33 1   
     7     3    16 1   
     8     3    28 1   
     9     4     5 ar  
    10     4    19 ar  
    11     5     6 ar  
    12     5    34 1   
    13     6    29 ar  
    14     6    31 1   
    15     7    19 ar  
    16     7    29 ar  
    17     7    35 1   
    18     8     9 1   
    19     8    20 1   
    20     8    21 1   
    21     8    36 1   
    22     9    21 1   
    23     9    37 1   
    24     9    38 1   
    25    10    22 1   
    26    10    23 1   
    27    10    39 1   
    28    10    40 1   
    29    11    12 ar  
    30    11    24 1   
    31    11    27 ar  
    32    12    13 ar  
    33    12    64 1   
    34    13    26 ar  
    35    13    66 1   
    36    14    26 ar  
    37    14    27 ar  
    38    14    41 1   
    39    15    27 1   
    40    15    30 1   
    41    15    42 1   
    42    15    43 1   
    43    16    44 1   
    44    16    45 1   
    45    16    65 1   
    46    17    18 1   
    47    17    46 1   
    48    17    47 1   
    49    18    25 1   
    50    18    48 1   
    51    18    49 1   
    52    19    28 1   
    53    20    50 1   
    54    20    51 1   
    55    20    63 1   
    56    21    52 1   
    57    21    53 1   
    58    22    31 1   
    59    22    54 1   
    60    22    55 1   
    61    23    30 1   
    62    23    56 1   
    63    23    57 1   
    64    24    30 1   
    65    24    58 1   
    66    24    59 1   
    67    25    28 1   
    68    25    60 1   
    69    25    61 1   
    70    26    62 1   
    71    29    63 1   
@<TRIPOS>SUBSTRUCTURE
     1 H7Q         1 TEMP              0 ****  ****    0 ROOT
