@<TRIPOS>MOLECULE
H7V
   31    31     1     0     0
SMALL
bcc


@<TRIPOS>ATOM
      1 N            0.0000     0.0000     0.0000 n7         1 H7V      -0.614200
      2 CA           1.4690     0.0000     0.0000 c3         1 H7V      -0.000500
      3 C            1.9720     0.0000     1.4200 c          1 H7V       0.960600
      4 O            1.1870    -0.0010     2.3390 o          1 H7V      -0.896300
      5 CB           1.9790     1.2490    -0.7210 c3         1 H7V       0.000600
      6 C01          1.5540     1.1990    -2.1910 c3         1 H7V      -0.057700
      7 C02          2.2600     0.0330    -2.8850 c3         1 H7V      -0.026400
      8 C03          1.8350    -0.0170    -4.3550 c3         1 H7V      -0.025400
      9 C04          2.2210     1.2940    -5.0420 c3         1 H7V      -0.023400
     10 C05          1.5150     2.4610    -4.3470 c3         1 H7V      -0.025400
     11 C06          1.9400     2.5100    -2.8770 c3         1 H7V      -0.026400
     12 C07         -0.5270    -1.3660     0.1190 c3         1 H7V       0.183100
     13 OXT          3.2910    -0.0010     1.6650 o          1 H7V      -0.896300
     14 H           -0.3340     0.5540     0.7640 hn         1 H7V       0.277800
     15 HA           1.8300    -0.8840    -0.5110 h1         1 H7V       0.034700
     16 HB2          1.5600     2.1320    -0.2540 hc         1 H7V       0.023200
     17 HB1          3.0600     1.2860    -0.6590 hc         1 H7V       0.023200
     18 H07          0.4820     1.0610    -2.2570 hc         1 H7V       0.042700
     19 H09          3.3320     0.1730    -2.8250 hc         1 H7V       0.017200
     20 H10          1.9840    -0.8950    -2.3990 hc         1 H7V       0.017200
     21 H11          0.7620    -0.1530    -4.4150 hc         1 H7V       0.003450
     22 H12          2.3370    -0.8420    -4.8470 hc         1 H7V       0.003450
     23 H14          1.9180     1.2580    -6.0810 hc         1 H7V       0.001700
     24 H13          3.2930     1.4320    -4.9770 hc         1 H7V       0.001700
     25 H16          0.4430     2.3200    -4.4070 hc         1 H7V       0.003450
     26 H15          1.7910     3.3890    -4.8330 hc         1 H7V       0.003450
     27 H17          1.4380     3.3350    -2.3860 hc         1 H7V       0.017200
     28 H18          3.0130     2.6460    -2.8170 hc         1 H7V       0.017200
     29 H04         -1.1920    -1.5710    -0.7110 h1         1 H7V      -0.013300
     30 H03          0.2950    -2.0720     0.1060 h1         1 H7V      -0.013300
     31 H02         -1.0720    -1.4630     1.0500 h1         1 H7V      -0.013300
@<TRIPOS>BOND
     1     1     2 1   
     2     1    12 1   
     3     1    14 1   
     4     2     3 1   
     5     2     5 1   
     6     2    15 1   
     7     3     4 1   
     8     3    13 1   
     9     5     6 1   
    10     5    16 1   
    11     5    17 1   
    12     6     7 1   
    13     6    11 1   
    14     6    18 1   
    15     7     8 1   
    16     7    19 1   
    17     7    20 1   
    18     8     9 1   
    19     8    21 1   
    20     8    22 1   
    21     9    10 1   
    22     9    23 1   
    23     9    24 1   
    24    10    11 1   
    25    10    25 1   
    26    10    26 1   
    27    11    27 1   
    28    11    28 1   
    29    12    29 1   
    30    12    30 1   
    31    12    31 1   
@<TRIPOS>SUBSTRUCTURE
     1 H7V         1 TEMP              0 ****  ****    0 ROOT
