@<TRIPOS>MOLECULE
molecule
   31    31     1     0     0
SMALL
bcc


@<TRIPOS>ATOM
      1 N            0.0000     0.0000     0.0000 n7         1 H7V      -0.830200
      2 CA           1.4690     0.0000     0.0000 c3         1 H7V       0.052500
      3 C            1.9720     0.0000     1.4200 c          1 H7V       0.866600
      4 O            1.1870    -0.0010     2.3390 o          1 H7V      -0.850800
      5 CB           1.9790     1.2490    -0.7210 c3         1 H7V      -0.045400
      6 C01          1.5540     1.1990    -2.1910 c3         1 H7V      -0.069700
      7 C02          2.2600     0.0330    -2.8850 c3         1 H7V      -0.073900
      8 C03          1.8350    -0.0170    -4.3550 c3         1 H7V      -0.080400
      9 C04          2.2210     1.2940    -5.0420 c3         1 H7V      -0.077400
     10 C05          1.5150     2.4610    -4.3470 c3         1 H7V      -0.080400
     11 C06          1.9400     2.5100    -2.8770 c3         1 H7V      -0.073900
     12 C07         -0.5270    -1.3660     0.1190 c3         1 H7V       0.159100
     13 OXT          3.2910    -0.0010     1.6650 o          1 H7V      -0.850800
     14 H           -0.3340     0.5540     0.7640 hn         1 H7V       0.366800
     15 HA           1.8300    -0.8840    -0.5110 h1         1 H7V       0.049700
     16 HB2          1.5600     2.1320    -0.2540 hc         1 H7V       0.047200
     17 HB1          3.0600     1.2860    -0.6590 hc         1 H7V       0.047200
     18 H07          0.4820     1.0610    -2.2570 hc         1 H7V       0.064700
     19 H09          3.3320     0.1730    -2.8250 hc         1 H7V       0.040700
     20 H10          1.9840    -0.8950    -2.3990 hc         1 H7V       0.040700
     21 H11          0.7620    -0.1530    -4.4150 hc         1 H7V       0.029200
     22 H12          2.3370    -0.8420    -4.8470 hc         1 H7V       0.029200
     23 H14          1.9180     1.2580    -6.0810 hc         1 H7V       0.027700
     24 H13          3.2930     1.4320    -4.9770 hc         1 H7V       0.027700
     25 H16          0.4430     2.3200    -4.4070 hc         1 H7V       0.029200
     26 H15          1.7910     3.3890    -4.8330 hc         1 H7V       0.029200
     27 H17          1.4380     3.3350    -2.3860 hc         1 H7V       0.040700
     28 H18          3.0130     2.6460    -2.8170 hc         1 H7V       0.040700
     29 H04         -1.1920    -1.5710    -0.7110 h1         1 H7V       0.014700
     30 H03          0.2950    -2.0720     0.1060 h1         1 H7V       0.014700
     31 H02         -1.0720    -1.4630     1.0500 h1         1 H7V       0.014700
@<TRIPOS>BOND
     1     4     3 1
     2     3     2 1
     3     5     2 1
     4     5     6 1
     5    11     6 1
     6    11    10 1
     7     2     1 1
     8     6     7 1
     9    10     9 1
    10     7     8 1
    11    12     1 1
    12     9     8 1
    13     3    13 1
    14     1    14 1
    15     2    15 1
    16     5    16 1
    17     5    17 1
    18     6    18 1
    19     7    19 1
    20     7    20 1
    21     8    21 1
    22     8    22 1
    23     9    23 1
    24     9    24 1
    25    10    25 1
    26    10    26 1
    27    11    27 1
    28    11    28 1
    29    12    29 1
    30    12    30 1
    31    12    31 1
@<TRIPOS>SUBSTRUCTURE
     1 H7V         1 TEMP              0 ****  ****    0 ROOT
