@<TRIPOS>MOLECULE
molecule
   24    24     1     0     0
SMALL
bcc


@<TRIPOS>ATOM
      1 CAA          0.0000     0.0000     0.0000 c3         1 H7Y      -0.061900
      2 CAD          1.5070     0.0000     0.0000 c2         1 H7Y      -0.159200
      3 CAE          2.1710     0.0000     1.1490 ce         1 H7Y      -0.129200
      4 CAJ          3.6490    -0.0000     1.1480 ca         1 H7Y      -0.024800
      5 CAH          4.3480    -0.0000     2.3560 ca         1 H7Y      -0.202000
      6 CAF          4.3470    -0.0080    -0.0590 ca         1 H7Y      -0.148000
      7 CAG          5.7270    -0.0080    -0.0580 ca         1 H7Y      -0.131000
      8 CAK          6.4220    -0.0020     1.1410 ca         1 H7Y       0.077100
      9 OAC          7.7820    -0.0040     1.1380 oh         1 H7Y      -0.504100
     10 CAL          5.7300    -0.0010     2.3500 ca         1 H7Y       0.127100
     11 OAI          6.4150    -0.0010     3.5260 os         1 H7Y      -0.314900
     12 CAB          5.6420     0.0010     4.7280 c3         1 H7Y       0.125700
     13 HAA1        -0.3610     0.8850     0.5110 hc         1 H7Y       0.043367
     14 HAA2        -0.3610    -0.0000    -1.0210 hc         1 H7Y       0.043367
     15 HAA3        -0.3610    -0.8850     0.5110 hc         1 H7Y       0.043367
     16 HAD          2.0480    -0.0000    -0.9380 ha         1 H7Y       0.128000
     17 HAE          1.6300     0.0000     2.0870 ha         1 H7Y       0.130000
     18 HAH          3.8080     0.0010     3.2950 ha         1 H7Y       0.141000
     19 HAF          3.8060    -0.0120    -0.9980 ha         1 H7Y       0.136000
     20 HAG          6.2680    -0.0140    -0.9970 ha         1 H7Y       0.142000
     21 HAC          8.0970     0.8360     0.8480 ho         1 H7Y       0.414000
     22 HAB1         5.0180    -0.8850     4.7560 h1         1 H7Y       0.041367
     23 HAB2         5.0160     0.8850     4.7530 h1         1 H7Y       0.041367
     24 HAB3         6.3050     0.0030     5.5840 h1         1 H7Y       0.041367
@<TRIPOS>BOND
     1     1     2 1
     2     2     3 2
     3     3     4 1
     4     4     5 ar
     5     4     6 ar
     6     5    10 ar
     7     6     7 ar
     8     7     8 ar
     9     8     9 1
    10     8    10 ar
    11    10    11 1
    12    11    12 1
    13     1    13 1
    14     1    14 1
    15     1    15 1
    16     2    16 1
    17     3    17 1
    18     5    18 1
    19     6    19 1
    20     7    20 1
    21     9    21 1
    22    12    22 1
    23    12    23 1
    24    12    24 1
@<TRIPOS>SUBSTRUCTURE
     1 H7Y         1 TEMP              0 ****  ****    0 ROOT
