@<TRIPOS>MOLECULE
molecule
   42    43     1     0     0
SMALL
bcc


@<TRIPOS>ATOM
      1 C8           0.0000     0.0000     0.0000 cp         1 H83      -0.010000
      2 Cl           2.2640    -0.0000    -1.5020 cl         1 H83      -0.090400
      3 C9           1.3950     0.0000     0.0000 ca         1 H83       0.033400
      4 C11         -0.7450    -0.0000    -1.2820 cp         1 H83      -0.061000
      5 C16         -0.4220     0.9190    -2.2790 ca         1 H83      -0.105000
      6 C15         -1.1190     0.9140    -3.4710 ca         1 H83      -0.129000
      7 C14         -2.1350    -0.0000    -3.6770 ca         1 H83      -0.114000
      8 C13         -2.4600    -0.9150    -2.6920 ca         1 H83      -0.129000
      9 C12         -1.7670    -0.9230    -1.4980 ca         1 H83      -0.105000
     10 C7          -0.6910    -0.0040     1.2100 ca         1 H83      -0.109000
     11 C6           0.0080    -0.0100     2.4010 ca         1 H83      -0.103000
     12 C10          2.0830     0.0000     1.1980 ca         1 H83      -0.118000
     13 C5           1.3910    -0.0100     2.3950 ca         1 H83      -0.095300
     14 C4           2.1460    -0.0150     3.6990 c3         1 H83       0.209100
     15 N1           2.3920    -1.4020     4.1170 n7         1 H83      -0.812200
     16 C3           3.1280    -1.4460     5.3880 c3         1 H83       0.160800
     17 C2           3.3650    -2.9040     5.7890 c3         1 H83      -0.077400
     18 C1           4.1320    -2.9490     7.1120 c3         1 H83      -0.112400
     19 C            4.3680    -4.4060     7.5150 c3         1 H83       0.091800
     20 N            5.1050    -4.4500     8.7850 nz         1 H83      -0.810600
     21 H1           0.3740     1.6360    -2.1190 ha         1 H83       0.135500
     22 H2          -0.8690     1.6280    -4.2470 ha         1 H83       0.135000
     23 H3          -2.6810     0.0010    -4.6130 ha         1 H83       0.135000
     24 H4          -3.2560    -1.6300    -2.8590 ha         1 H83       0.135000
     25 H5          -2.0220    -1.6390    -0.7270 ha         1 H83       0.135500
     26 H6          -1.7740    -0.0050     1.2160 ha         1 H83       0.149000
     27 H7          -0.5290    -0.0160     3.3420 ha         1 H83       0.138000
     28 H8           3.1660    -0.0000     1.1990 ha         1 H83       0.138000
     29 H9           1.5620     0.4920     4.4560 h1         1 H83       0.043700
     30 H10          3.0920     0.4960     3.5700 h1         1 H83       0.043700
     31 H11          2.9180    -1.8760     3.4100 hn         1 H83       0.361800
     32 H13          2.5500    -0.9490     6.1570 h1         1 H83       0.037700
     33 H14          4.0810    -0.9440     5.2710 h1         1 H83       0.037700
     34 H15          2.4120    -3.4050     5.9070 hc         1 H83       0.065700
     35 H16          3.9420    -3.4010     5.0190 hc         1 H83       0.065700
     36 H17          3.5540    -2.4510     7.8820 hc         1 H83       0.065200
     37 H18          5.0850    -2.4480     6.9950 hc         1 H83       0.065200
     38 H19          3.4150    -4.9070     7.6340 hx         1 H83       0.114200
     39 H20          4.9450    -4.9050     6.7460 hx         1 H83       0.114200
     40 H21          4.5720    -3.9890     9.4960 hn         1 H83       0.457133
     41 H22          5.9850    -3.9880     8.6760 hn         1 H83       0.457133
     42 HN3          5.2590    -5.4030     9.0490 hn         1 H83       0.457133
@<TRIPOS>BOND
     1     6     5 ar
     2     6     7 ar
     3     5     4 ar
     4     7     8 ar
     5     4     1 1
     6     4     9 ar
     7     8     9 ar
     8    10     1 ar
     9    10    11 ar
    10     1     3 ar
    11    11    13 ar
    12     3     2 1
    13     3    12 ar
    14    13    12 ar
    15    13    14 1
    16    14    15 1
    17    16    15 1
    18    16    17 1
    19    18    17 1
    20    18    19 1
    21    20    19 1
    22     5    21 1
    23     6    22 1
    24     7    23 1
    25     8    24 1
    26     9    25 1
    27    10    26 1
    28    11    27 1
    29    12    28 1
    30    14    29 1
    31    14    30 1
    32    15    31 1
    33    16    32 1
    34    16    33 1
    35    17    34 1
    36    17    35 1
    37    18    36 1
    38    18    37 1
    39    19    38 1
    40    19    39 1
    41    20    40 1
    42    20    41 1
    43    42    20 1
@<TRIPOS>SUBSTRUCTURE
     1 H83         1 TEMP              0 ****  ****    0 ROOT
