@<TRIPOS>MOLECULE
molecule
   44    46     1     0     0
SMALL
bcc


@<TRIPOS>ATOM
      1 N1           0.0000     0.0000     0.0000 nb         1 H84      -0.785000
      2 C2           1.3210     0.0000     0.0000 ca         1 H84       0.610900
      3 N3           2.0280     0.0000     1.1100 nb         1 H84      -0.800000
      4 C4           1.4260    -0.0000     2.2960 ca         1 H84       0.450800
      5 C5           0.0220    -0.0010     2.3500 ca         1 H84      -0.157200
      6 C6          -0.6880    -0.0010     1.1370 ca         1 H84       0.639200
      7 N6          -2.0710    -0.0010     1.1270 nv         1 H84      -1.061500
      8 N7          -0.3270    -0.0010     3.6580 nc         1 H84      -0.618100
      9 C8           0.7470    -0.0010     4.3930 cd         1 H84       0.416700
     10 N9           1.8540    -0.0000     3.5990 na         1 H84      -0.248000
     11 PA           4.6400    -1.9030     9.4190 p5         1 H84       1.437800
     12 PB           5.2040    -4.5020    10.7280 p5         1 H84       1.261600
     13 PG           5.6550    -7.3510    11.4660 p5         1 H84       1.077700
     14 C1'          3.2470     0.0000     4.0540 c3         1 H84       0.253800
     15 O1A          3.2500    -1.4710    10.1050 o          1 H84      -0.850500
     16 O2B          4.2060    -4.3790    11.8140 o          1 H84      -0.797000
     17 O1G          4.5680    -7.2170    12.6460 o          1 H84      -0.788167
     18 C2'          3.7710     1.4480     4.1770 c3         1 H84      -0.157400
     19 O2A          5.7630    -1.2320    10.1120 o          1 H84      -0.850500
     20 O1B          6.6630    -4.1240    11.2960 o          1 H84      -0.797000
     21 O2G          5.6680    -8.8640    10.9180 o          1 H84      -0.788167
     22 C3'          4.6780     1.4140     5.4280 c3         1 H84       0.101100
     23 O3'          6.0230     1.7500     5.0820 oh         1 H84      -0.599800
     24 O3A          4.8200    -3.5000     9.5290 os         1 H84      -0.713800
     25 C3B          5.2190    -6.2160    10.1080 c3         1 H84      -0.063600
     26 Br1          3.4380    -6.6760     9.4150 br         1 H84      -0.250400
     27 Br2          6.5460    -6.3790     8.6660 br         1 H84      -0.250400
     28 O3G          6.9960    -7.0040    11.9880 o          1 H84      -0.788167
     29 C4'          4.5940    -0.0500     5.9130 c3         1 H84       0.129100
     30 O4'          3.3410    -0.5410     5.3900 os         1 H84      -0.372600
     31 C5'          4.5920    -0.1070     7.4410 c3         1 H84       0.241400
     32 O5'          4.6310    -1.4700     7.8690 os         1 H84      -0.585200
     33 H1           1.8420     0.0010    -0.9500 h5         1 H84       0.020100
     34 H2          -2.5710    -0.8680     1.1080 hn         1 H84       0.410800
     35 H3          -2.5720     0.8650     1.1080 hn         1 H84       0.410800
     36 H4           0.7580    -0.0020     5.4760 h5         1 H84       0.100800
     37 H5           3.8710    -0.5680     3.3750 h2         1 H84       0.080700
     38 H8           2.9490     2.1370     4.3260 hc         1 H84       0.053200
     39 H9           4.3470     1.7180     3.3000 hc         1 H84       0.053200
     40 H12          4.2970     2.0850     6.1880 h1         1 H84       0.046700
     41 H13          6.2050     2.6350     5.3500 ho         1 H84       0.385000
     42 H14          5.4180    -0.6260     5.5100 h1         1 H84       0.078700
     43 H15          5.4610     0.4160     7.8230 h1         1 H84       0.029700
     44 H16          3.6930     0.3640     7.8190 h1         1 H84       0.029700
@<TRIPOS>BOND
     1     2     3 ar
     2     2     1 ar
     3     3     4 ar
     4     1     6 ar
     5     4     5 ar
     6     4    10 1
     7     6     5 ar
     8     6     7 1
     9    18    14 1
    10    18    22 1
    11    14    10 1
    12    14    30 1
    13     5     8 1
    14    10     9 1
    15    23    22 1
    16    22    29 1
    17    30    29 1
    18    29    31 1
    19     8     9 2
    20    16    12 1
    21    31    32 1
    22    32    11 1
    23    12    24 1
    24    12    20 1
    25    12    25 1
    26    24    11 1
    27    26    25 1
    28    11    19 1
    29    11    15 1
    30    25    27 1
    31    25    13 1
    32    28    13 1
    33    13    17 1
    34    13    21 1
    35     2    33 1
    36     7    34 1
    37     7    35 1
    38     9    36 1
    39    14    37 1
    40    18    38 1
    41    18    39 1
    42    22    40 1
    43    23    41 1
    44    29    42 1
    45    31    43 1
    46    31    44 1
@<TRIPOS>SUBSTRUCTURE
     1 H84         1 TEMP              0 ****  ****    0 ROOT
