@<TRIPOS>MOLECULE
molecule
   65    66     1     0     0
SMALL
bcc


@<TRIPOS>ATOM
      1 CAA          0.0000     0.0000     0.0000 c3         1 H86      -0.092100
      2 CAP          1.5300     0.0000     0.0000 c3         1 H86      -0.084400
      3 CAQ          2.0400     0.0000     1.4420 c3         1 H86      -0.082400
      4 CAR          3.5700     0.0010     1.4420 c3         1 H86      -0.082400
      5 CAS          4.0800     0.0010     2.8850 c3         1 H86      -0.082400
      6 CAT          5.6100     0.0010     2.8850 c3         1 H86      -0.082400
      7 CAU          6.1200     0.0010     4.3270 c3         1 H86      -0.080400
      8 CAV          7.6500     0.0010     4.3270 c3         1 H86      -0.080400
      9 CAW          8.1600     0.0010     5.7690 c3         1 H86      -0.083400
     10 CAX          9.6900     0.0010     5.7690 c3         1 H86       0.148400
     11 OAZ         10.1670     0.0010     7.1160 os         1 H86      -0.335900
     12 CBC         11.5140     0.0010     7.2950 ca         1 H86       0.052100
     13 CAM         12.3680     0.0020     6.1990 ca         1 H86      -0.172000
     14 CAN         12.0550     0.0070     8.5740 ca         1 H86      -0.132300
     15 NBG         13.3600     0.0080     8.7580 na         1 H86       0.133900
     16 CAY         13.8840     0.0140    10.1250 c3         1 H86       0.039300
     17 CBF         13.8800    -1.4120    10.6800 c3         1 H86      -0.357100
     18 PBI         15.0630    -2.4330     9.7410 p5         1 H86       1.063200
     19 OAF         16.4200    -1.8580     9.8700 o          1 H86      -0.822500
     20 OAG         15.0590    -3.9330    10.3250 o          1 H86      -0.822500
     21 OAC         14.6360    -2.4590     8.1890 o          1 H86      -0.822500
     22 PBH         14.3630    -1.3820    12.4370 p5         1 H86       1.063200
     23 OAD         13.3150    -0.4870    13.2680 o          1 H86      -0.822500
     24 OAE         14.3650    -2.8840    13.0190 o          1 H86      -0.822500
     25 OAB         15.7190    -0.8020    12.5660 o          1 H86      -0.822500
     26 CAO         14.2060     0.0020     7.7480 ca         1 H86       0.024700
     27 CBE         13.7450     0.0020     6.4330 cp         1 H86      -0.120000
     28 CBD         14.7030    -0.0030     5.3000 cp         1 H86       0.055000
     29 CAK         14.2320    -0.0040     3.9890 ca         1 H86      -0.190000
     30 CBA         15.1280    -0.0080     2.9360 ca         1 H86       0.144400
     31 FAH         14.6730    -0.0100     1.6630 f          1 H86      -0.169900
     32 CAJ         16.4910    -0.0130     3.1820 ca         1 H86      -0.299000
     33 CBB         16.9630    -0.0130     4.4850 ca         1 H86       0.144400
     34 FAI         18.2920    -0.0170     4.7200 f          1 H86      -0.169900
     35 CAL         16.0750    -0.0020     5.5440 ca         1 H86      -0.190000
     36 HAA1        -0.3610    -0.0000    -1.0210 hc         1 H86       0.028700
     37 HAA2        -0.3610    -0.8840     0.5110 hc         1 H86       0.028700
     38 HAA3        -0.3610     0.8850     0.5100 hc         1 H86       0.028700
     39 HAP1         1.8910    -0.8850    -0.5110 hc         1 H86       0.038700
     40 HAP2         1.8910     0.8850    -0.5110 hc         1 H86       0.038700
     41 HAQ1         1.6790    -0.8850     1.9520 hc         1 H86       0.039700
     42 HAQ2         1.6780     0.8840     1.9530 hc         1 H86       0.039700
     43 HAR1         3.9300     0.8860     0.9320 hc         1 H86       0.039700
     44 HAR2         3.9310    -0.8830     0.9310 hc         1 H86       0.039700
     45 HAS1         3.7190     0.8850     3.3960 hc         1 H86       0.040200
     46 HAS2         3.7190    -0.8840     3.3950 hc         1 H86       0.040200
     47 HAT1         5.9710    -0.8840     2.3740 hc         1 H86       0.039700
     48 HAT2         5.9710     0.8850     2.3740 hc         1 H86       0.039700
     49 HAU1         5.7590    -0.8840     4.8370 hc         1 H86       0.040700
     50 HAU2         5.7590     0.8850     4.8370 hc         1 H86       0.040700
     51 HAV1         8.0110     0.8850     3.8160 hc         1 H86       0.040700
     52 HAV2         8.0110    -0.8840     3.8160 hc         1 H86       0.040700
     53 HAW1         7.7990    -0.8840     6.2800 hc         1 H86       0.050700
     54 HAW2         7.7990     0.8850     6.2800 hc         1 H86       0.050700
     55 HAX1        10.0510    -0.8840     5.2590 h1         1 H86       0.029700
     56 HAX2        10.0510     0.8850     5.2590 h1         1 H86       0.029700
     57 HAM         11.9760     0.0020     5.1890 ha         1 H86       0.113000
     58 HAN         11.3940     0.0120     9.4320 h4         1 H86       0.181000
     59 HAY1        13.2620     0.6450    10.7480 h1         1 H86       0.081200
     60 HAY2        14.8970     0.3970    10.1220 h1         1 H86       0.081200
     61 HBF         12.8860    -1.8330    10.5870 hc         1 H86       0.054700
     62 HAO         15.2710     0.0030     7.9430 h4         1 H86       0.214000
     63 HAK         13.1690     0.0680     3.7950 ha         1 H86       0.152500
     64 HAJ         17.1900    -0.0170     2.3550 ha         1 H86       0.117000
     65 HAL         16.4440    -0.0030     6.5620 ha         1 H86       0.152500
@<TRIPOS>BOND
     1    19    18 1
     2    20    18 1
     3    18    21 1
     4    18    17 1
     5    25    22 1
     6    23    22 1
     7    17    22 1
     8    17    16 1
     9    22    24 1
    10    16    15 1
    11    15    14 1
    12    15    26 2
    13    14    12 ar
    14    10     9 1
    15    10    11 1
    16     9     8 1
    17     7     6 1
    18     7     8 1
    19     6     5 1
    20    26    27 ar
    21    12    11 1
    22    12    13 ar
    23     5     4 1
    24     4     3 1
    25    27    13 ar
    26    27    28 1
    27     3     2 1
    28     2     1 1
    29    28    29 ar
    30    28    35 ar
    31    29    30 ar
    32    35    33 ar
    33    30    31 1
    34    30    32 ar
    35    33    32 ar
    36    33    34 1
    37     1    36 1
    38     1    37 1
    39     1    38 1
    40     2    39 1
    41     2    40 1
    42     3    41 1
    43     3    42 1
    44     4    43 1
    45     4    44 1
    46     5    45 1
    47     5    46 1
    48     6    47 1
    49     6    48 1
    50     7    49 1
    51     7    50 1
    52     8    51 1
    53     8    52 1
    54     9    53 1
    55     9    54 1
    56    10    55 1
    57    10    56 1
    58    13    57 1
    59    14    58 1
    60    16    59 1
    61    16    60 1
    62    17    61 1
    63    26    62 1
    64    29    63 1
    65    32    64 1
    66    35    65 1
@<TRIPOS>SUBSTRUCTURE
     1 H86         1 TEMP              0 ****  ****    0 ROOT
