@<TRIPOS>MOLECULE
molecule
   52    56     1     0     0
SMALL
bcc


@<TRIPOS>ATOM
      1 C1           0.0000     0.0000     0.0000 ca         1 H89       0.405700
      2 C2           1.3830     0.0000     0.0000 ca         1 H89      -0.228300
      3 C3           2.0580     0.0000     1.2120 ca         1 H89      -0.074300
      4 C4           1.3140     0.0010     2.3820 ca         1 H89      -0.228300
      5 C5          -0.0660     0.0010     2.3030 ca         1 H89       0.405700
      6 N6          -0.6750     0.0060     1.1320 nb         1 H89      -0.699000
      7 C7           3.5640    -0.0010     1.2550 c3         1 H89       0.138600
      8 N8           4.0530     1.3800     1.2690 na         1 H89      -0.063800
      9 C9           4.3480     2.1390     0.1660 ca         1 H89       0.469800
     10 C10          4.7800     3.3910     0.6500 ca         1 H89      -0.318200
     11 C11          4.7260     3.3320     2.0580 cc         1 H89       0.451800
     12 N12          4.2940     2.1540     2.4090 nd         1 H89      -0.573100
     13 N13          4.2970     1.9080    -1.1380 nb         1 H89      -0.767000
     14 C14          4.6440     2.8260    -2.0240 cp         1 H89       0.504800
     15 C15          5.0830     4.0930    -1.6290 ca         1 H89      -0.260300
     16 C16          5.1580     4.3940    -0.2740 ca         1 H89       0.009400
     17 C18          5.6170     5.7210     0.1880 c          1 H89       0.879200
     18 O19          5.6730     5.9640     1.3760 o          1 H89      -0.822800
     19 O20          5.9710     6.6600    -0.7100 o          1 H89      -0.822800
     20 C21          4.5640     2.5040    -3.4700 cp         1 H89      -0.161500
     21 C22          4.9310     3.4570    -4.4190 ca         1 H89      -0.068500
     22 C23          4.8550     3.1550    -5.7620 ca         1 H89      -0.203000
     23 C24          4.4160     1.9030    -6.1700 ca         1 H89       0.129100
     24 C25          4.0490     0.9510    -5.2270 ca         1 H89      -0.203000
     25 C26          4.1280     1.2450    -3.8820 ca         1 H89      -0.068500
     26 O27          4.3430     1.6080    -7.4940 os         1 H89      -0.329900
     27 C28          3.8670     0.1580    -9.3430 ca         1 H89      -0.087300
     28 C29          4.9860    -0.3130   -10.0030 ca         1 H89      -0.103000
     29 C30          4.9720    -0.4500   -11.3780 ca         1 H89      -0.135000
     30 C31          3.8370    -0.1150   -12.0940 ca         1 H89      -0.124000
     31 C32          2.7170     0.3550   -11.4340 ca         1 H89      -0.135000
     32 C33          2.7320     0.4920   -10.0590 ca         1 H89      -0.103000
     33 C34          3.8810     0.3010    -7.8430 c3         1 H89       0.187700
     34 H1          -0.5350     0.0020    -0.9420 h4         1 H89       0.016100
     35 H2           1.9310    -0.0030    -0.9340 ha         1 H89       0.147500
     36 H4           1.8080    -0.0020     3.3460 ha         1 H89       0.147500
     37 H5          -0.6540     0.0040     3.2120 h4         1 H89       0.016100
     38 H7           3.9500    -0.5120     0.3810 h1         1 H89       0.064700
     39 H7A          3.8990    -0.5110     2.1490 h1         1 H89       0.064700
     40 H11          4.9610     3.9090     2.9450 h4         1 H89       0.072800
     41 H15          5.3630     4.8320    -2.3710 ha         1 H89       0.166000
     42 H22          5.2740     4.4350    -4.1010 ha         1 H89       0.154000
     43 H23          5.1400     3.8950    -6.5000 ha         1 H89       0.131500
     44 H25          3.7080    -0.0260    -5.5480 ha         1 H89       0.131500
     45 H26          3.8420     0.5020    -3.1470 ha         1 H89       0.154000
     46 H29          5.8750    -0.5740    -9.4420 ha         1 H89       0.135000
     47 H30          5.8490    -0.8180   -11.8960 ha         1 H89       0.127000
     48 H31          3.8250    -0.2220   -13.1720 ha         1 H89       0.125000
     49 H32          1.8280     0.6170   -11.9940 ha         1 H89       0.127000
     50 H33          1.8540     0.8610    -9.5420 ha         1 H89       0.135000
     51 H34          4.5440    -0.4420    -7.4150 h1         1 H89       0.040700
     52 H34A         2.8790     0.1570    -7.4570 h1         1 H89       0.040700
@<TRIPOS>BOND
     1     6     1 ar
     2     1     2 ar
     3     1    34 1
     4     2     3 ar
     5     2    35 1
     6     4     3 ar
     7     3     7 1
     8     5     4 ar
     9     4    36 1
    10     6     5 ar
    11     5    37 1
    12     7     8 1
    13     7    38 1
    14     7    39 1
    15     8    12 1
    16     8     9 1
    17     9    13 ar
    18     9    10 ar
    19    11    10 1
    20    10    16 ar
    21    12    11 2
    22    11    40 1
    23    13    14 ar
    24    14    20 1
    25    14    15 ar
    26    16    15 ar
    27    15    41 1
    28    16    17 1
    29    18    17 1
    30    17    19 1
    31    21    20 ar
    32    20    25 ar
    33    21    22 ar
    34    21    42 1
    35    22    23 ar
    36    22    43 1
    37    23    26 1
    38    23    24 ar
    39    25    24 ar
    40    24    44 1
    41    25    45 1
    42    26    33 1
    43    33    27 1
    44    32    27 ar
    45    27    28 ar
    46    28    29 ar
    47    28    46 1
    48    30    29 ar
    49    29    47 1
    50    31    30 ar
    51    30    48 1
    52    32    31 ar
    53    31    49 1
    54    32    50 1
    55    33    51 1
    56    33    52 1
@<TRIPOS>SUBSTRUCTURE
     1 H89         1 TEMP              0 ****  ****    0 ROOT
