@<TRIPOS>MOLECULE
H89
   52    56     1     0     0
SMALL
bcc


@<TRIPOS>ATOM
      1 C1         -0.0860   -0.0810    0.4770 ca        1 H89      0.380700
      2 C2          1.3090   -0.2000    0.3430 ca        1 H89     -0.222800
      3 C3          2.1130    0.0790    1.4540 ca        1 H89     -0.073300
      4 C4          1.4940    0.4780    2.6440 ca        1 H89     -0.222800
      5 C5          0.0910    0.5700    2.6730 ca        1 H89      0.380700
      6 N6         -0.6980    0.2910    1.6170 nb        1 H89     -0.674000
      7 C7          3.6040   -0.0820    1.3780 c3        1 H89      0.086600
      8 N8          4.3910    1.1360    1.3680 na        1 H89     -0.013800
      9 C9          4.4720    1.9390    0.1700 ca        1 H89      0.393800
     10 C10         4.7240    3.2990    0.6140 ca        1 H89     -0.287200
     11 C11         4.6710    3.2140    2.0710 cc        1 H89      0.433800
     12 N12         4.4160    1.9640    2.4610 nd        1 H89     -0.579100
     13 N13         4.4250    1.5460   -1.1220 nb        1 H89     -0.697000
     14 C14         4.6440    2.5480   -2.0230 cp        1 H89      0.448800
     15 C15         4.9000    3.8940   -1.6700 ca        1 H89     -0.238300
     16 C16         4.9520    4.2920   -0.3270 ca        1 H89     -0.023600
     17 C18         5.2510    5.7390    0.0580 c         1 H89      0.911200
     18 O19         5.2460    6.0300    1.2850 o         1 H89     -0.813800
     19 O20         5.4870    6.5490   -0.8790 o         1 H89     -0.813800
     20 C21         4.6070    2.1970   -3.4560 cp        1 H89     -0.146500
     21 C22         5.5330    2.7810   -4.3360 ca        1 H89     -0.077000
     22 C23         5.5130    2.4770   -5.6910 ca        1 H89     -0.188000
     23 C24         4.5530    1.5720   -6.1790 ca        1 H89      0.112100
     24 C25         3.6250    0.9820   -5.3160 ca        1 H89     -0.188000
     25 C26         3.6600    1.2980   -3.9570 ca        1 H89     -0.077000
     26 O27         4.6310    1.3290   -7.5420 os        1 H89     -0.334900
     27 C28         3.7900    0.3930   -9.5520 ca        1 H89     -0.084300
     28 C29         5.0160    0.6850  -10.1570 ca        1 H89     -0.114500
     29 C30         5.1640    0.5490  -11.5370 ca        1 H89     -0.134000
     30 C31         4.0920    0.1190  -12.3180 ca        1 H89     -0.133000
     31 C32         2.8670   -0.1730  -11.7180 ca        1 H89     -0.134000
     32 C33         2.7130   -0.0340  -10.3400 ca        1 H89     -0.114500
     33 C34         3.5940    0.4990   -8.0750 c3        1 H89      0.173700
     34 H1         -0.7520   -0.2910   -0.3790 h4        1 H89      0.013100
     35 H2          1.7560   -0.4900   -0.6170 ha        1 H89      0.154000
     36 H4          2.0910    0.7290    3.5310 ha        1 H89      0.154000
     37 H5         -0.4320    0.8880    3.5920 h4        1 H89      0.013100
     38 H7          3.8760   -0.6450    0.4390 h1        1 H89      0.070700
     39 H7A         3.9380   -0.6910    2.2690 h1        1 H89      0.070700
     40 H11         4.8280    4.0700    2.7400 h4        1 H89      0.088800
     41 H15         5.0580    4.6620   -2.4440 ha        1 H89      0.168000
     42 H22         6.2840    3.4880   -3.9460 ha        1 H89      0.149000
     43 H23         6.2330    2.9310   -6.3850 ha        1 H89      0.134000
     44 H25         2.8700    0.2760   -5.6840 ha        1 H89      0.134000
     45 H26         2.9310    0.8320   -3.2770 ha        1 H89      0.149000
     46 H29         5.8590    1.0290   -9.5370 ha        1 H89      0.142000
     47 H30         6.1300    0.7830  -12.0080 ha        1 H89      0.127500
     48 H31         4.2110    0.0110  -13.4060 ha        1 H89      0.125000
     49 H32         2.0190   -0.5090  -12.3320 ha        1 H89      0.127500
     50 H33         1.7450   -0.2580   -9.8690 ha        1 H89      0.142000
     51 H34         2.5930    0.9520   -7.8400 h1        1 H89      0.048200
     52 H34A        3.6620   -0.5220   -7.6090 h1        1 H89      0.048200
@<TRIPOS>BOND
     1    1    2 ar  
     2    1    6 ar  
     3    1   34 1   
     4    2    3 ar  
     5    2   35 1   
     6    3    4 ar  
     7    3    7 1   
     8    4    5 ar  
     9    4   36 1   
    10    5    6 ar  
    11    5   37 1   
    12    7    8 1   
    13    7   38 1   
    14    7   39 1   
    15    8    9 1   
    16    8   12 1   
    17    9   10 ar  
    18    9   13 ar  
    19   10   11 1   
    20   10   16 ar  
    21   11   12 2   
    22   11   40 1   
    23   13   14 ar  
    24   14   15 ar  
    25   14   20 1   
    26   15   16 ar  
    27   15   41 1   
    28   16   17 1   
    29   17   18 1   
    30   17   19 1   
    31   20   21 ar  
    32   20   25 ar  
    33   21   22 ar  
    34   21   42 1   
    35   22   23 ar  
    36   22   43 1   
    37   23   24 ar  
    38   23   26 1   
    39   24   25 ar  
    40   24   44 1   
    41   25   45 1   
    42   26   33 1   
    43   27   28 ar  
    44   27   32 ar  
    45   27   33 1   
    46   28   29 ar  
    47   28   46 1   
    48   29   30 ar  
    49   29   47 1   
    50   30   31 ar  
    51   30   48 1   
    52   31   32 ar  
    53   31   49 1   
    54   32   50 1   
    55   33   51 1   
    56   33   52 1   
@<TRIPOS>SUBSTRUCTURE
     1 H89         1 TEMP              0 ****  ****    0 ROOT
