@<TRIPOS>MOLECULE
molecule
   41    43     1     0     0
SMALL
bcc


@<TRIPOS>ATOM
      1 N01          0.0000     0.0000     0.0000 nb         1 H8B      -0.701000
      2 C02          1.3180     0.0000     0.0000 ca         1 H8B       0.687200
      3 N02          1.9950    -0.0000    -1.2100 nv         1 H8B      -1.085500
      4 C03          2.0500     0.0000     1.1950 ca         1 H8B      -0.252300
      5 C04          1.3980    -0.0000     2.3910 ca         1 H8B      -0.082000
      6 C05         -0.0120    -0.0000     2.3840 ca         1 H8B      -0.156300
      7 C06         -0.7460     0.0020     3.5800 ca         1 H8B      -0.113000
      8 C07         -2.1080     0.0020     3.5340 ca         1 H8B      -0.111000
      9 C08         -2.7810     0.0020     2.3140 ca         1 H8B      -0.085300
     10 C09         -2.1000     0.0020     1.1370 ca         1 H8B      -0.134300
     11 C10         -0.6940    -0.0000     1.1440 ca         1 H8B       0.426600
     12 C11         -4.2890     0.0030     2.2990 c3         1 H8B       0.183700
     13 O12         -4.7640     1.3510     2.2940 os         1 H8B      -0.308900
     14 C21         -8.0120     2.9910     2.2630 ca         1 H8B      -0.091000
     15 C22         -8.8530     1.8930     2.2550 ca         1 H8B      -0.170000
     16 C23         -8.3270     0.6150     2.2600 ca         1 H8B      -0.087000
     17 C24         -6.9570     0.4300     2.2730 ca         1 H8B      -0.227000
     18 C25         -6.1110     1.5290     2.2810 ca         1 H8B       0.165100
     19 C26         -6.6420     2.8110     2.2710 ca         1 H8B      -0.118300
     20 C27         -5.7250     4.0080     2.2790 c3         1 H8B       0.214100
     21 N28         -5.2280     4.2540     0.9190 n7         1 H8B      -0.808200
     22 C29         -4.3290     5.4150     0.8880 c3         1 H8B       0.148100
     23 H1           2.2300     0.8670    -1.6510 hn         1 H8B       0.436800
     24 H2           2.2160    -0.8670    -1.6590 hn         1 H8B       0.436800
     25 H3           3.1330    -0.0000     1.1680 ha         1 H8B       0.142000
     26 H4           1.9480    -0.0000     3.3240 ha         1 H8B       0.139000
     27 H5          -0.2330     0.0020     4.5340 ha         1 H8B       0.134000
     28 H6          -2.6750     0.0030     4.4570 ha         1 H8B       0.134000
     29 H7          -2.6390     0.0010     0.1970 ha         1 H8B       0.156000
     30 H8          -4.6590    -0.5070     3.1800 h1         1 H8B       0.041700
     31 H9          -4.6410    -0.5070     1.4110 h1         1 H8B       0.041700
     32 H11         -9.9270     2.0350     2.2470 ha         1 H8B       0.129000
     33 H12         -8.9890    -0.2420     2.2540 ha         1 H8B       0.129000
     34 H13         -6.5460    -0.5720     2.2770 ha         1 H8B       0.134000
     35 H14         -6.2690     4.8770     2.6270 h1         1 H8B       0.039200
     36 H15         -4.8890     3.8170     2.9400 h1         1 H8B       0.039200
     37 H16         -6.0020     4.4140     0.3050 hn         1 H8B       0.350800
     38 H18         -3.9340     5.5390    -0.1130 h1         1 H8B       0.029367
     39 H19         -4.8790     6.3040     1.1720 h1         1 H8B       0.029367
     40 H20         -3.5130     5.2580     1.5820 h1         1 H8B       0.029367
     41 H10         -8.4270     3.9920     2.2570 ha         1 H8B       0.132000
@<TRIPOS>BOND
     1    22    21 1
     2    21    20 1
     3    20    19 1
     4    19    14 ar
     5    19    18 ar
     6    13    18 1
     7    13    12 1
     8     8     7 ar
     9     8     9 ar
    10    14    15 ar
    11    18    17 ar
    12     7     6 ar
    13    12     9 1
    14     9    10 ar
    15    15    16 ar
    16    17    16 ar
    17     6     5 ar
    18     6    11 ar
    19     5     4 ar
    20    10    11 ar
    21    11     1 ar
    22     4     2 ar
    23     1     2 ar
    24     2     3 1
    25     3    23 1
    26     3    24 1
    27     4    25 1
    28     5    26 1
    29     7    27 1
    30     8    28 1
    31    10    29 1
    32    12    30 1
    33    12    31 1
    34    14    41 1
    35    15    32 1
    36    16    33 1
    37    17    34 1
    38    20    35 1
    39    20    36 1
    40    21    37 1
    41    22    38 1
    42    22    39 1
    43    22    40 1
@<TRIPOS>SUBSTRUCTURE
     1 H8B         1 TEMP              0 ****  ****    0 ROOT
