@<TRIPOS>MOLECULE
H8B
   41    43     1     0     0
SMALL
bcc


@<TRIPOS>ATOM
      1 N01          0.0000     0.0000     0.0000 nb         1 H8B      -0.575000
      2 C02          1.3180     0.0000     0.0000 ca         1 H8B       0.501200
      3 N02          1.9950    -0.0000    -1.2100 nv         1 H8B      -0.662500
      4 C03          2.0500     0.0000     1.1950 ca         1 H8B      -0.219300
      5 C04          1.3980    -0.0000     2.3910 ca         1 H8B      -0.056000
      6 C05         -0.0120    -0.0000     2.3840 ca         1 H8B      -0.146300
      7 C06         -0.7460     0.0020     3.5800 ca         1 H8B      -0.086000
      8 C07         -2.1080     0.0020     3.5340 ca         1 H8B      -0.080000
      9 C08         -2.7810     0.0020     2.3140 ca         1 H8B      -0.104300
     10 C09         -2.1000     0.0020     1.1370 ca         1 H8B      -0.110300
     11 C10         -0.6940    -0.0000     1.1440 ca         1 H8B       0.376600
     12 C11         -4.2890     0.0030     2.2990 c3         1 H8B       0.256700
     13 O12         -4.7640     1.3510     2.2940 os         1 H8B      -0.286900
     14 C21         -8.0120     2.9910     2.2630 ca         1 H8B      -0.058000
     15 C22         -8.8530     1.8930     2.2550 ca         1 H8B      -0.148000
     16 C23         -8.3270     0.6150     2.2600 ca         1 H8B      -0.054000
     17 C24         -6.9570     0.4300     2.2730 ca         1 H8B      -0.217000
     18 C25         -6.1110     1.5290     2.2810 ca         1 H8B       0.176100
     19 C26         -6.6420     2.8110     2.2710 ca         1 H8B      -0.136300
     20 C27         -5.7250     4.0080     2.2790 c3         1 H8B       0.210100
     21 N28         -5.2280     4.2540     0.9190 n7         1 H8B      -0.576200
     22 C29         -4.3290     5.4150     0.8880 c3         1 H8B       0.178100
     23 H1           2.2300     0.8670    -1.6510 hn         1 H8B       0.276800
     24 H2           2.2160    -0.8670    -1.6590 hn         1 H8B       0.276800
     25 H3           3.1330    -0.0000     1.1680 ha         1 H8B       0.116000
     26 H4           1.9480    -0.0000     3.3240 ha         1 H8B       0.110000
     27 H5          -0.2330     0.0020     4.5340 ha         1 H8B       0.107000
     28 H6          -2.6750     0.0030     4.4570 ha         1 H8B       0.107000
     29 H7          -2.6390     0.0010     0.1970 ha         1 H8B       0.124000
     30 H8          -4.6590    -0.5070     3.1800 h1         1 H8B       0.005200
     31 H9          -4.6410    -0.5070     1.4110 h1         1 H8B       0.005200
     32 H11         -9.9270     2.0350     2.2470 ha         1 H8B       0.104000
     33 H12         -8.9890    -0.2420     2.2540 ha         1 H8B       0.099000
     34 H13         -6.5460    -0.5720     2.2770 ha         1 H8B       0.120000
     35 H14         -6.2690     4.8770     2.6270 h1         1 H8B       0.011200
     36 H15         -4.8890     3.8170     2.9400 h1         1 H8B       0.011200
     37 H16         -6.0020     4.4140     0.3050 hn         1 H8B       0.249800
     38 H18         -3.9340     5.5390    -0.1130 h1         1 H8B      -0.002967
     39 H19         -4.8790     6.3040     1.1720 h1         1 H8B      -0.002967
     40 H20         -3.5130     5.2580     1.5820 h1         1 H8B      -0.002967
     41 H10         -8.4270     3.9920     2.2570 ha         1 H8B       0.103000
@<TRIPOS>BOND
     1     1     2 ar  
     2     1    11 ar  
     3     2     3 1   
     4     2     4 ar  
     5     3    23 1   
     6     3    24 1   
     7     4     5 ar  
     8     4    25 1   
     9     5     6 ar  
    10     5    26 1   
    11     6     7 ar  
    12     6    11 ar  
    13     7     8 ar  
    14     7    27 1   
    15     8     9 ar  
    16     8    28 1   
    17     9    10 ar  
    18     9    12 1   
    19    10    11 ar  
    20    10    29 1   
    21    12    13 1   
    22    12    30 1   
    23    12    31 1   
    24    13    18 1   
    25    14    15 ar  
    26    14    19 ar  
    27    14    41 1   
    28    15    16 ar  
    29    15    32 1   
    30    16    17 ar  
    31    16    33 1   
    32    17    18 ar  
    33    17    34 1   
    34    18    19 ar  
    35    19    20 1   
    36    20    21 1   
    37    20    35 1   
    38    20    36 1   
    39    21    22 1   
    40    21    37 1   
    41    22    38 1   
    42    22    39 1   
    43    22    40 1   
@<TRIPOS>SUBSTRUCTURE
     1 H8B         1 TEMP              0 ****  ****    0 ROOT
