@<TRIPOS>MOLECULE
molecule
   50    53     1     0     0
SMALL
bcc


@<TRIPOS>ATOM
      1 C4           0.0000     0.0000     0.0000 ca         1 H8D      -0.138000
      2 C14          4.0680    -0.4500     5.2510 c3         1 H8D      -0.106500
      3 C5           1.3900     0.0000     0.0000 ca         1 H8D      -0.108000
      4 C6           1.5740    -0.0010     2.3880 ca         1 H8D      -0.003800
      5 C11          1.3350     0.5470     4.8700 c3         1 H8D       0.228700
      6 C7          -0.6920    -0.0030     3.5600 cc         1 H8D      -0.150400
      7 C8          -1.9360    -0.0020     3.0890 cd         1 H8D      -0.095100
      8 C9           2.1710     0.0110     3.7380 ce         1 H8D      -0.037400
      9 C10          3.4020    -0.4400     3.9010 c2         1 H8D      -0.162200
     10 C13          3.4310     0.6480     6.1120 c3         1 H8D       0.189800
     11 N1          -1.9240     0.0040     1.7020 na         1 H8D      -0.184400
     12 N2           1.9840     0.4120     6.1670 n3         1 H8D      -0.747600
     13 C3           0.1620     0.0000     2.3800 ca         1 H8D      -0.125800
     14 N3           6.3050    -1.0130     4.3600 ns         1 H8D      -0.571900
     15 C1          -0.6420     0.0030     1.2380 ca         1 H8D      -0.025200
     16 C15         -0.0720    -0.0600     4.9320 c3         1 H8D       0.015800
     17 C16          5.5410    -0.1790     5.0920 c          1 H8D       0.666100
     18 C19          7.7380    -0.7500     4.2050 c3         1 H8D       0.122700
     19 C2           2.1760     0.0000     1.1510 ca         1 H8D      -0.141000
     20 C20          8.4690    -2.0610     3.9090 c3         1 H8D      -0.095400
     21 C21          8.3560    -2.9920     5.1180 c3         1 H8D      -0.094100
     22 C22          7.9550     0.2280     3.0490 c3         1 H8D       0.121400
     23 O1           6.0400     0.7910     5.6230 o          1 H8D      -0.622100
     24 O2           7.5500    -0.3860     1.8240 oh         1 H8D      -0.617800
     25 H1          -0.5630     0.0000    -0.9260 ha         1 H8D       0.131000
     26 H2           3.9180    -1.4130     5.7220 hc         1 H8D       0.088700
     27 H3           1.8960    -0.0000    -0.9580 ha         1 H8D       0.125000
     28 H4           1.2120     1.6090     4.6900 h1         1 H8D       0.033700
     29 H5          -2.8300    -0.0050     3.7000 h4         1 H8D       0.164000
     30 H7           3.9460    -0.8140     3.0420 ha         1 H8D       0.134000
     31 H9           1.2630     2.2840     6.7710 h1         1 H8D       0.033700
     32 H10          1.9510     1.2950     8.0670 h1         1 H8D       0.033700
     33 H11          0.3610     0.8980     7.4000 h1         1 H8D       0.033700
     34 H12          3.8440     0.6100     7.1130 h1         1 H8D       0.053700
     35 H13          3.6240     1.6170     5.6680 h1         1 H8D       0.053700
     36 H14         -2.7410     0.0090     1.1240 hn         1 H8D       0.294700
     37 H16          5.8970    -1.8240     3.9390 hn         1 H8D       0.322500
     38 H17         -0.6800     0.5070     5.6270 hc         1 H8D       0.056200
     39 H18         -0.0070    -1.0910     5.2570 hc         1 H8D       0.056200
     40 H19          8.1270    -0.3180     5.1200 h1         1 H8D       0.084700
     41 H20          3.2560     0.0000     1.0720 ha         1 H8D       0.133000
     42 H21          8.0220    -2.5360     3.0440 hc         1 H8D       0.056200
     43 H22          9.5130    -1.8550     3.7080 hc         1 H8D       0.056200
     44 H23          9.1580    -3.7200     5.0900 hc         1 H8D       0.035700
     45 H24          7.4020    -3.5050     5.0920 hc         1 H8D       0.035700
     46 H25          8.4280    -2.4110     6.0300 hc         1 H8D       0.035700
     47 H26          7.3670     1.1220     3.2160 h1         1 H8D       0.034200
     48 H27          9.0050     0.4910     2.9900 h1         1 H8D       0.034200
     49 H28          7.7890     0.1680     1.1000 ho         1 H8D       0.402000
     50 C12          1.3480     1.2790     7.1670 c3         1 H8D       0.159100
@<TRIPOS>BOND
     1     7    11 1
     2     7     6 2
     3    11    15 1
     4    16     6 1
     5    16     5 1
     6     6    13 1
     7    50    12 1
     8    15    13 ar
     9    15     1 ar
    10    13     4 ar
    11     5    12 1
    12     5     8 1
    13    12    10 1
    14     1     3 ar
    15     4     8 1
    16     4    19 ar
    17     8     9 2
    18    10     2 1
    19     3    19 ar
    20     9     2 1
    21     2    17 1
    22    17    14 1
    23    17    23 2
    24    14    18 1
    25    21    20 1
    26    20    18 1
    27    18    22 1
    28    22    24 1
    29     1    25 1
    30     2    26 1
    31     3    27 1
    32     5    28 1
    33     7    29 1
    34     9    30 1
    35    50    31 1
    36    50    32 1
    37    50    33 1
    38    10    34 1
    39    10    35 1
    40    11    36 1
    41    14    37 1
    42    16    38 1
    43    16    39 1
    44    18    40 1
    45    19    41 1
    46    20    42 1
    47    20    43 1
    48    21    44 1
    49    21    45 1
    50    21    46 1
    51    22    47 1
    52    22    48 1
    53    24    49 1
@<TRIPOS>SUBSTRUCTURE
     1 H8D         1 TEMP              0 ****  ****    0 ROOT
