@<TRIPOS>MOLECULE
H8G
   51    54     1     0     0
SMALL
bcc


@<TRIPOS>ATOM
      1 CAA          0.0000     0.0000     0.0000 c3         1 H8G      -0.024100
      2 CAB          0.9870     1.7110     2.7930 c3         1 H8G      -0.024100
      3 CAC          1.6290    -5.7540    -0.9340 c3         1 H8G       0.179100
      4 CAE          1.0430    -3.9940     2.8610 c2         1 H8G      -0.156200
      5 CAF         -2.4310    -5.5310     5.1050 ca         1 H8G      -0.080000
      6 CAG         -1.2120    -5.1470     4.5500 ca         1 H8G      -0.115000
      7 CAH         -3.5390    -5.9220     4.3630 ca         1 H8G      -0.100000
      8 CAI         -3.4990    -6.0190     0.7210 cc         1 H8G      -0.261100
      9 CAJ          1.5300     0.0000     0.0000 c3         1 H8G       0.058000
     10 CAK          2.2630     1.2690     2.0710 c3         1 H8G       0.058000
     11 CAL         -1.0760    -5.1960     0.1520 c3         1 H8G       0.085800
     12 CAM          2.5470    -4.7050     1.0430 c3         1 H8G       0.139800
     13 CAP          2.2430    -1.1670     2.0160 c          1 H8G       0.598100
     14 CAQ          0.1200    -4.7950     2.3600 ce         1 H8G      -0.049400
     15 CAR         -2.2690    -5.5900     0.9830 cd         1 H8G      -0.143400
     16 CAS         -1.0550    -5.1410     3.1830 ca         1 H8G       0.012200
     17 CAT         -3.4180    -5.9240     2.9740 ca         1 H8G      -0.208200
     18 CAU         -2.1900    -5.5280     2.4380 ca         1 H8G      -0.135800
     19 CAV          2.2640    -3.6030     2.0720 c3         1 H8G       0.086900
     20 CAW          0.2050    -5.3830     0.9770 c3         1 H8G       0.192700
     21 NAN          2.0190    -2.3340     1.3810 ns         1 H8G      -0.215900
     22 NAO         -4.1980    -6.2250     1.9000 na         1 H8G       0.354600
     23 NAX          1.3490    -4.8890     0.2200 n3         1 H8G      -0.550600
     24 NAY          2.0190     0.0000     1.3800 n          1 H8G      -0.181800
     25 OAD          2.6490    -1.1670     3.1620 o          1 H8G      -0.713100
     26 H1          -0.3610    -0.5400    -0.8670 hc         1 H8G       0.010367
     27 H2          -0.3610    -0.4810     0.9010 hc         1 H8G       0.010367
     28 H3          -0.3610     1.0210    -0.0340 hc         1 H8G       0.010367
     29 H4           1.2460     2.3750     3.6090 hc         1 H8G       0.010367
     30 H5           0.3400     2.2290     2.0960 hc         1 H8G       0.010367
     31 H6           0.4740     0.8410     3.1840 hc         1 H8G       0.010367
     32 H7           2.6120    -5.5250    -1.3270 h1         1 H8G       0.003700
     33 H8           1.5970    -6.7910    -0.6240 h1         1 H8G       0.003700
     34 H9           0.8850    -5.5830    -1.7020 h1         1 H8G       0.003700
     35 H12         -2.5200    -5.5230     6.1840 ha         1 H8G       0.095000
     36 H13         -0.3900    -4.8550     5.1930 ha         1 H8G       0.110000
     37 H14         -4.4650    -6.2100     4.8460 ha         1 H8G       0.103000
     38 H15         -3.8980    -6.1830    -0.2730 h4         1 H8G       0.137000
     39 H16          1.8910     0.8840    -0.5110 h1         1 H8G       0.024200
     40 H17          1.8910    -0.8850    -0.5110 h1         1 H8G       0.024200
     41 H18          2.5490     2.0240     1.3490 h1         1 H8G       0.024200
     42 H19          3.0600     1.1390     2.7930 h1         1 H8G       0.024200
     43 H20         -1.0300    -5.8210    -0.7320 hc         1 H8G       0.020700
     44 H21         -1.1680    -4.1560    -0.1390 hc         1 H8G       0.020700
     45 H22          2.7810    -5.6290     1.5570 h1         1 H8G       0.019200
     46 H23          3.3780    -4.4100     0.4140 h1         1 H8G       0.019200
     47 H25          3.1110    -3.5030     2.7390 h1         1 H8G       0.059700
     48 H26          0.3470    -6.4500     1.0990 h1         1 H8G       0.013700
     49 H27          1.7210    -2.3350     0.4250 hn         1 H8G       0.193500
     50 H28         -5.1430    -6.5500     1.9540 hn         1 H8G       0.111700
     51 H10          0.9230    -3.6150     3.8680 ha         1 H8G       0.125000
@<TRIPOS>BOND
     1     1     9 1   
     2     1    26 1   
     3     1    27 1   
     4     1    28 1   
     5     2    10 1   
     6     2    29 1   
     7     2    30 1   
     8     2    31 1   
     9     3    23 1   
    10     3    32 1   
    11     3    33 1   
    12     3    34 1   
    13     4    14 2   
    14     4    19 1   
    15     4    51 1   
    16     5     6 ar  
    17     5     7 ar  
    18     5    35 1   
    19     6    16 ar  
    20     6    36 1   
    21     7    17 ar  
    22     7    37 1   
    23     8    15 2   
    24     8    22 1   
    25     8    38 1   
    26     9    24 1   
    27     9    39 1   
    28     9    40 1   
    29    10    24 1   
    30    10    41 1   
    31    10    42 1   
    32    11    15 1   
    33    11    20 1   
    34    11    43 1   
    35    11    44 1   
    36    12    19 1   
    37    12    23 1   
    38    12    45 1   
    39    12    46 1   
    40    13    21 1   
    41    13    24 1   
    42    13    25 2   
    43    14    16 1   
    44    14    20 1   
    45    15    18 1   
    46    16    18 ar  
    47    17    18 ar  
    48    17    22 1   
    49    19    21 1   
    50    19    47 1   
    51    20    23 1   
    52    20    48 1   
    53    21    49 1   
    54    22    50 1   
@<TRIPOS>SUBSTRUCTURE
     1 H8G         1 TEMP              0 ****  ****    0 ROOT
