@<TRIPOS>MOLECULE
molecule
   70    75     1     0     0
SMALL
bcc


@<TRIPOS>ATOM
      1 C1           0.0000     0.0000     0.0000 c3         1 H8H       0.153100
      2 N2           1.4690     0.0000     0.0000 n3         1 H8H      -0.735600
      3 C3           1.9960     0.0000     1.3720 c3         1 H8H       0.164300
      4 C4           3.5230     0.0810     1.3290 c3         1 H8H       0.162300
      5 N5           4.0500    -1.0600     0.5660 n3         1 H8H      -0.724600
      6 C6           5.5190    -1.0600     0.5660 c3         1 H8H       0.161800
      7 C7           6.0290    -1.5440     1.9240 c3         1 H8H       0.140400
      8 O8           5.6610    -2.9130     2.1100 os         1 H8H      -0.309900
      9 C9           6.0410    -3.5000     3.2740 ca         1 H8H       0.215100
     10 C10          5.7110    -4.8350     3.5120 ca         1 H8H      -0.281000
     11 C11          6.0850    -5.4530     4.6850 ca         1 H8H       0.216100
     12 O12          5.7600    -6.7510     4.9090 os         1 H8H      -0.341900
     13 C13          5.0970    -7.4450     3.8500 c3         1 H8H       0.142100
     14 C14          5.3370    -8.9510     3.9950 c3         1 H8H      -0.134400
     15 C15          4.5590    -9.6910     2.9040 c3         1 H8H       0.140900
     16 O16          3.1710    -9.3680     3.0080 os         1 H8H      -0.418600
     17 C17          2.8810    -7.9800     2.8330 c3         1 H8H       0.140900
     18 C18          3.5910    -7.1710     3.9210 c3         1 H8H      -0.134400
     19 C19          6.8070    -4.7280     5.6490 ca         1 H8H      -0.372600
     20 C20          7.2170    -5.3090     6.8700 ca         1 H8H       0.777200
     21 N21          6.9200    -6.6240     7.1630 nu         1 H8H      -0.764300
     22 C22          7.2240    -7.1440     8.4270 ca         1 H8H       0.164600
     23 C23          8.5510    -7.2770     8.8260 ca         1 H8H       0.074100
     24 O24          9.7210    -6.9800     8.1890 os         1 H8H      -0.304900
     25 C25         10.7420    -7.7000     8.9050 c3         1 H8H       0.329200
     26 O26         10.2020    -7.8240    10.2340 os         1 H8H      -0.323900
     27 C27          8.8460    -7.7950    10.0820 ca         1 H8H       0.055100
     28 C28          7.8180    -8.1780    10.9320 ca         1 H8H      -0.109000
     29 C29          6.5020    -8.0440    10.5320 ca         1 H8H      -0.116000
     30 C30          6.2010    -7.5250     9.2870 ca         1 H8H       0.021400
     31 Cl3          4.5450    -7.3530     8.7940 cl         1 H8H      -0.088400
     32 N32          7.8950    -4.5540     7.7280 nb         1 H8H      -0.832000
     33 C33          8.1860    -3.2930     7.4590 ca         1 H8H       0.745900
     34 N34          7.8300    -2.7010     6.3430 nb         1 H8H      -0.793000
     35 C35          7.1410    -3.3720     5.4060 ca         1 H8H       0.542600
     36 C36          6.7530    -2.7710     4.2040 ca         1 H8H      -0.338300
     37 C37          3.5230    -1.0600    -0.8060 c3         1 H8H       0.162300
     38 C38          1.9960    -1.1400    -0.7640 c3         1 H8H       0.164300
     39 H11         -0.3610     0.8650     0.5430 h1         1 H8H       0.032367
     40 H12         -0.3610     0.0380    -1.0210 h1         1 H8H       0.032367
     41 H13A        -0.3610    -0.9030     0.4770 h1         1 H8H       0.032367
     42 H31          1.6050     0.8560     1.9080 h1         1 H8H       0.042200
     43 H32          1.6970    -0.9130     1.8720 h1         1 H8H       0.042200
     44 H41          3.9140     0.0500     2.3390 h1         1 H8H       0.040950
     45 H42          3.8210     1.0050     0.8480 h1         1 H8H       0.040950
     46 H61          5.8800    -0.0550     0.3820 h1         1 H8H       0.048200
     47 H62          5.8800    -1.7210    -0.2130 h1         1 H8H       0.048200
     48 H71          7.1080    -1.4520     1.9580 h1         1 H8H       0.043700
     49 H72          5.5900    -0.9420     2.7100 h1         1 H8H       0.043700
     50 H10          5.1530    -5.3900     2.7670 ha         1 H8H       0.151000
     51 H13          5.4790    -7.1090     2.8940 h1         1 H8H       0.059700
     52 H141         6.3950    -9.1590     3.8880 hc         1 H8H       0.066700
     53 H142         4.9940    -9.2790     4.9680 hc         1 H8H       0.066700
     54 H151         4.6900   -10.7590     3.0300 h1         1 H8H       0.052200
     55 H152         4.9270    -9.3890     1.9310 h1         1 H8H       0.052200
     56 H171         3.2320    -7.6590     1.8600 h1         1 H8H       0.052200
     57 H172         1.8120    -7.8230     2.9080 h1         1 H8H       0.052200
     58 H181         3.4080    -6.1150     3.7630 hc         1 H8H       0.066700
     59 H182         3.2160    -7.4670     4.8940 hc         1 H8H       0.066700
     60 HN21         6.5270    -7.2170     6.4590 hn         1 H8H       0.488800
     61 H251        10.8740    -8.6830     8.4690 h2         1 H8H       0.072200
     62 H252        11.6540    -7.1160     8.9320 h2         1 H8H       0.072200
     63 H28          8.0480    -8.5860    11.9090 ha         1 H8H       0.151000
     64 H29          5.7020    -8.3400    11.2010 ha         1 H8H       0.154000
     65 H33          8.7410    -2.7230     8.1930 h5         1 H8H       0.055100
     66 H36          7.0930    -1.7710     3.9640 ha         1 H8H       0.156000
     67 H371         3.8220    -0.1460    -1.3070 h1         1 H8H       0.040950
     68 H372         3.9140    -1.9160    -1.3420 h1         1 H8H       0.040950
     69 H381         1.6050    -1.1080    -1.7740 h1         1 H8H       0.042200
     70 H382         1.6960    -2.0640    -0.2840 h1         1 H8H       0.042200
@<TRIPOS>BOND
     1     1     2 1
     2     1    39 1
     3     1    40 1
     4     1    41 1
     5     2     3 1
     6     2    38 1
     7     3     4 1
     8     3    42 1
     9     3    43 1
    10     4     5 1
    11     4    44 1
    12     4    45 1
    13     5     6 1
    14     5    37 1
    15     6     7 1
    16     6    46 1
    17     6    47 1
    18     7     8 1
    19     7    48 1
    20     7    49 1
    21     8     9 1
    22     9    10 ar
    23     9    36 ar
    24    10    11 ar
    25    10    50 1
    26    11    12 1
    27    11    19 ar
    28    12    13 1
    29    13    14 1
    30    13    18 1
    31    13    51 1
    32    14    15 1
    33    14    52 1
    34    14    53 1
    35    15    16 1
    36    15    54 1
    37    15    55 1
    38    16    17 1
    39    17    18 1
    40    17    56 1
    41    17    57 1
    42    18    58 1
    43    18    59 1
    44    19    20 ar
    45    19    35 ar
    46    20    21 1
    47    20    32 ar
    48    21    22 1
    49    21    60 1
    50    22    23 ar
    51    22    30 ar
    52    23    24 1
    53    23    27 ar
    54    24    25 1
    55    25    26 1
    56    25    61 1
    57    25    62 1
    58    26    27 1
    59    27    28 ar
    60    28    29 ar
    61    28    63 1
    62    29    30 ar
    63    29    64 1
    64    30    31 1
    65    32    33 ar
    66    33    34 ar
    67    33    65 1
    68    34    35 ar
    69    35    36 ar
    70    36    66 1
    71    37    38 1
    72    37    67 1
    73    37    68 1
    74    38    69 1
    75    38    70 1
@<TRIPOS>SUBSTRUCTURE
     1 H8H         1 TEMP              0 ****  ****    0 ROOT
