@<TRIPOS>MOLECULE
H8J
   53    56     1     0     0
SMALL
bcc


@<TRIPOS>ATOM
      1 CAA          0.0000     0.0000     0.0000 c3         1 H8J      -0.017100
      2 CAB         -3.1140     3.7920     5.0230 c3         1 H8J       0.182100
      3 CAC          1.6020     7.0550    10.3630 c3         1 H8J      -0.004400
      4 CAF          0.9870     2.9510     4.4660 c2         1 H8J      -0.160200
      5 CAG          3.5170     3.6030     8.0220 ca         1 H8J      -0.084000
      6 CAH          2.7590     3.1820     6.9310 ca         1 H8J      -0.118000
      7 CAI          3.1500     4.6340     8.8790 ca         1 H8J      -0.097000
      8 CAJ          0.0580     6.5100     8.4370 cc         1 H8J      -0.242100
      9 CAK          1.5300     0.0000     0.0000 c3         1 H8J      -0.040400
     10 CAL          3.5650    -0.1260     1.4440 c3         1 H8J       0.211400
     11 CAM         -0.9770     5.4160     6.2930 c3         1 H8J       0.084800
     12 CAN         -1.3750     2.5140     3.9220 c3         1 H8J       0.171800
     13 CAQ          0.5850     3.5420     5.5770 ce         1 H8J      -0.032400
     14 CAR         -0.0040     5.6640     7.4150 cd         1 H8J      -0.142400
     15 CAS          1.5650     3.8030     6.6490 ca         1 H8J       0.008200
     16 CAT          1.9460     5.2880     8.6210 ca         1 H8J      -0.190200
     17 CAU          1.2050     4.8550     7.5170 ca         1 H8J      -0.132800
     18 CAV          0.0360     2.6530     3.3390 c3         1 H8J      -0.070500
     19 CAW          2.0400     0.0000     1.4420 c3         1 H8J       0.010700
     20 CAX         -0.8410     3.9640     5.8120 c3         1 H8J       0.191700
     21 NAO          1.6520     1.2510     2.0970 ns         1 H8J      -0.184900
     22 NAY         -1.6940     3.7520     4.6490 n3         1 H8J      -0.548600
     23 NAZ          1.2160     6.2990     9.1690 na         1 H8J       0.388600
     24 OAD         -0.3390     0.4330     2.6320 o          1 H8J      -0.656100
     25 H1          -0.3610    -0.3270    -0.9670 hc         1 H8J       0.013367
     26 H2          -0.3610    -0.6740     0.7670 hc         1 H8J       0.013367
     27 H3          -0.3610     1.0020     0.2000 hc         1 H8J       0.013367
     28 H4          -3.7100     3.3690     4.2240 h1         1 H8J       0.003367
     29 H5          -3.2640     3.2160     5.9290 h1         1 H8J       0.003367
     30 H6          -3.4140     4.8180     5.1930 h1         1 H8J       0.003367
     31 H7           0.8450     7.8000    10.5780 h1         1 H8J       0.016033
     32 H8           1.6940     6.3800    11.2040 h1         1 H8J       0.016033
     33 H9           2.5510     7.5460    10.1880 h1         1 H8J       0.016033
     34 H11          4.4530     3.0930     8.2150 ha         1 H8J       0.094000
     35 H12          3.1100     2.3700     6.3060 ha         1 H8J       0.104000
     36 H13          3.7780     4.9200     9.7140 ha         1 H8J       0.104000
     37 H14         -0.6910     7.2590     8.6670 h4         1 H8J       0.138000
     38 H15          1.8910    -0.8850    -0.5110 hc         1 H8J       0.021700
     39 H16          1.8910     0.8850    -0.5110 hc         1 H8J       0.021700
     40 H17          3.9330    -0.0380     2.4590 h1         1 H8J      -0.006300
     41 H18          3.8480    -1.0910     1.0390 h1         1 H8J      -0.006300
     42 H19         -0.7600     6.0880     5.4720 hc         1 H8J       0.023200
     43 H20         -1.9860     5.5840     6.6480 hc         1 H8J       0.023200
     44 H21         -2.0880     2.3690     3.1190 h1         1 H8J       0.027200
     45 H22         -1.4070     1.6730     4.6030 h1         1 H8J       0.027200
     46 H23          0.0550     3.4660     2.6230 hc         1 H8J       0.056700
     47 H24          1.6080    -0.8370     1.9780 h1         1 H8J       0.059700
     48 H25         -1.2270     3.3330     6.6040 h1         1 H8J       0.013700
     49 H26          2.2910     2.0220     2.1230 hn         1 H8J       0.186500
     50 H28          5.0420     0.7320     0.4900 ho         1 H8J       0.395000
     51 OAE          4.1290     0.9120     0.6400 oh         1 H8J      -0.596800
     52 CAP          0.4350     1.3660     2.6640 c          1 H8J       0.582100
     53 H10          2.0300     2.6750     4.3640 ha         1 H8J       0.108000
@<TRIPOS>BOND
     1     1     9 1   
     2     1    25 1   
     3     1    26 1   
     4     1    27 1   
     5     2    22 1   
     6     2    28 1   
     7     2    29 1   
     8     2    30 1   
     9     3    23 1   
    10     3    31 1   
    11     3    32 1   
    12     3    33 1   
    13     4    13 2   
    14     4    18 1   
    15     4    53 1   
    16     5     6 ar  
    17     5     7 ar  
    18     5    34 1   
    19     6    15 ar  
    20     6    35 1   
    21     7    16 ar  
    22     7    36 1   
    23     8    14 2   
    24     8    23 1   
    25     8    37 1   
    26     9    19 1   
    27     9    38 1   
    28     9    39 1   
    29    10    19 1   
    30    10    40 1   
    31    10    41 1   
    32    10    51 1   
    33    11    14 1   
    34    11    20 1   
    35    11    42 1   
    36    11    43 1   
    37    12    18 1   
    38    12    22 1   
    39    12    44 1   
    40    12    45 1   
    41    13    15 1   
    42    13    20 1   
    43    14    17 1   
    44    15    17 ar  
    45    16    17 ar  
    46    16    23 1   
    47    18    46 1   
    48    18    52 1   
    49    19    21 1   
    50    19    47 1   
    51    20    22 1   
    52    20    48 1   
    53    21    49 1   
    54    21    52 1   
    55    24    52 2   
    56    50    51 1   
@<TRIPOS>SUBSTRUCTURE
     1 H8J         1 TEMP              0 ****  ****    0 ROOT
