@<TRIPOS>MOLECULE
molecule
   53    56     1     0     0
SMALL
bcc


@<TRIPOS>ATOM
      1 CAA          0.0000     0.0000     0.0000 c3         1 H8J      -0.093100
      2 CAB         -3.1140     3.7920     5.0230 c3         1 H8J       0.159100
      3 CAC          1.6020     7.0550    10.3630 c3         1 H8J       0.041600
      4 CAF          0.9870     2.9510     4.4660 c2         1 H8J      -0.163200
      5 CAG          3.5170     3.6030     8.0220 ca         1 H8J      -0.110000
      6 CAH          2.7590     3.1820     6.9310 ca         1 H8J      -0.142000
      7 CAI          3.1500     4.6340     8.8790 ca         1 H8J      -0.135000
      8 CAJ          0.0580     6.5100     8.4370 cc         1 H8J      -0.090100
      9 CAK          1.5300     0.0000     0.0000 c3         1 H8J      -0.095400
     10 CAL          3.5650    -0.1260     1.4440 c3         1 H8J       0.123400
     11 CAM         -0.9770     5.4160     6.2930 c3         1 H8J       0.016800
     12 CAN         -1.3750     2.5140     3.9220 c3         1 H8J       0.188800
     13 CAQ          0.5850     3.5420     5.5770 ce         1 H8J      -0.035400
     14 CAR         -0.0040     5.6640     7.4150 cd         1 H8J      -0.151400
     15 CAS          1.5650     3.8030     6.6490 ca         1 H8J      -0.003800
     16 CAT          1.9460     5.2880     8.6210 ca         1 H8J      -0.022200
     17 CAU          1.2050     4.8550     7.5170 ca         1 H8J      -0.125800
     18 CAV          0.0360     2.6530     3.3390 c3         1 H8J      -0.106500
     19 CAW          2.0400     0.0000     1.4420 c3         1 H8J       0.121700
     20 CAX         -0.8410     3.9640     5.8120 c3         1 H8J       0.228700
     21 NAO          1.6520     1.2510     2.0970 ns         1 H8J      -0.575900
     22 NAY         -1.6940     3.7520     4.6490 n3         1 H8J      -0.747600
     23 NAZ          1.2160     6.2990     9.1690 na         1 H8J      -0.075400
     24 OAD         -0.3390     0.4330     2.6320 o          1 H8J      -0.619100
     25 H1          -0.3610    -0.3270    -0.9670 hc         1 H8J       0.040367
     26 H2          -0.3610    -0.6740     0.7670 hc         1 H8J       0.040367
     27 H3          -0.3610     1.0020     0.2000 hc         1 H8J       0.040367
     28 H4          -3.7100     3.3690     4.2240 h1         1 H8J       0.033700
     29 H5          -3.2640     3.2160     5.9290 h1         1 H8J       0.033700
     30 H6          -3.4140     4.8180     5.1930 h1         1 H8J       0.033700
     31 H7           0.8450     7.8000    10.5780 h1         1 H8J       0.047700
     32 H8           1.6940     6.3800    11.2040 h1         1 H8J       0.047700
     33 H9           2.5510     7.5460    10.1880 h1         1 H8J       0.047700
     34 H11          4.4530     3.0930     8.2150 ha         1 H8J       0.124000
     35 H12          3.1100     2.3700     6.3060 ha         1 H8J       0.129000
     36 H13          3.7780     4.9200     9.7140 ha         1 H8J       0.130000
     37 H14         -0.6910     7.2590     8.6670 h4         1 H8J       0.163000
     38 H15          1.8910    -0.8850    -0.5110 hc         1 H8J       0.049200
     39 H16          1.8910     0.8850    -0.5110 hc         1 H8J       0.049200
     40 H17          3.9330    -0.0380     2.4590 h1         1 H8J       0.030200
     41 H18          3.8480    -1.0910     1.0390 h1         1 H8J       0.030200
     42 H19         -0.7600     6.0880     5.4720 hc         1 H8J       0.056200
     43 H20         -1.9860     5.5840     6.6480 hc         1 H8J       0.056200
     44 H21         -2.0880     2.3690     3.1190 h1         1 H8J       0.054200
     45 H22         -1.4070     1.6730     4.6030 h1         1 H8J       0.054200
     46 H23          0.0550     3.4660     2.6230 hc         1 H8J       0.091700
     47 H24          1.6080    -0.8370     1.9780 h1         1 H8J       0.082700
     48 H25         -1.2270     3.3330     6.6040 h1         1 H8J       0.034700
     49 H26          2.2910     2.0220     2.1230 hn         1 H8J       0.326500
     50 H28          5.0420     0.7320     0.4900 ho         1 H8J       0.405000
     51 OAE          4.1290     0.9120     0.6400 oh         1 H8J      -0.613800
     52 CAP          0.4350     1.3660     2.6640 c          1 H8J       0.666100
     53 H10          2.0300     2.6750     4.3640 ha         1 H8J       0.128000
@<TRIPOS>BOND
     1     3    23 1
     2     8    23 1
     3     8    14 2
     4    23    16 1
     5    11    14 1
     6    11    20 1
     7    14    17 1
     8     2    22 1
     9    16    17 ar
    10    16     7 ar
    11    17    15 ar
    12    22    20 1
    13    22    12 1
    14    20    13 1
    15     7     5 ar
    16    15    13 1
    17    15     6 ar
    18    13     4 2
    19    12    18 1
    20     5     6 ar
    21     4    18 1
    22    18    52 1
    23    52    21 1
    24    52    24 2
    25    21    19 1
    26     1     9 1
    27     9    19 1
    28    19    10 1
    29    10    51 1
    30     1    25 1
    31     1    26 1
    32     1    27 1
    33     2    28 1
    34     2    29 1
    35     2    30 1
    36     3    31 1
    37     3    32 1
    38     3    33 1
    39     4    53 1
    40     5    34 1
    41     6    35 1
    42     7    36 1
    43     8    37 1
    44     9    38 1
    45     9    39 1
    46    10    40 1
    47    10    41 1
    48    11    42 1
    49    11    43 1
    50    12    44 1
    51    12    45 1
    52    18    46 1
    53    19    47 1
    54    20    48 1
    55    21    49 1
    56    51    50 1
@<TRIPOS>SUBSTRUCTURE
     1 H8J         1 TEMP              0 ****  ****    0 ROOT
