@<TRIPOS>MOLECULE
H8K
   50    54     1     0     0
SMALL
bcc


@<TRIPOS>ATOM
      1 O1         -0.0640   -0.1060    0.0600 oh        1 H8K     -0.580800
      2 C1          1.3380    0.0140   -0.1170 c3        1 H8K      0.142100
      3 C6          1.9140    0.2600    1.2760 c3        1 H8K     -0.101900
      4 C5          3.4260    0.2750    1.2480 c3        1 H8K     -0.094900
      5 C4          3.9440   -1.0550    0.6840 c3        1 H8K      0.115500
      6 C3          3.4190   -1.2500   -0.7440 c3        1 H8K     -0.094900
      7 C2          1.9060   -1.2660   -0.7290 c3        1 H8K     -0.101900
      8 N1          5.4480   -1.1120    0.7380 n4        1 H8K     -0.770000
      9 C7          5.9830   -2.5170    0.7430 c3        1 H8K      0.179100
     10 C8          7.4710   -2.5080    0.7390 ca        1 H8K     -0.206300
     11 C21         8.1670   -2.6220    1.9590 ca        1 H8K     -0.095000
     12 C12         9.5460   -2.6420    1.9370 ca        1 H8K     -0.077300
     13 C13        10.5040   -2.7660    3.1040 c3        1 H8K      0.052200
     14 C14        11.8300   -2.7250    2.4440 cc        1 H8K     -0.262600
     15 C16        13.2090   -2.7630    2.6370 cd        1 H8K      0.044700
     16 C17        14.0030   -2.8830    3.8170 cd        1 H8K     -0.184300
     17 C20        15.4520   -2.7920    3.9020 cd        1 H8K     -0.258300
     18 C19        15.7780   -2.9670    5.2300 cc        1 H8K      0.263600
     19 O2         14.6200   -3.1630    5.9870 os        1 H8K     -0.344800
     20 C18        13.5470   -3.1090    5.1090 cc        1 H8K      0.283600
     21 N3         13.7650   -2.6490    1.3340 na        1 H8K     -0.012600
     22 N2         12.8640   -2.5500    0.3610 nd        1 H8K     -0.427800
     23 C15        11.6620   -2.5890    0.9820 cc        1 H8K      0.294800
     24 C11        10.2480   -2.5430    0.6870 ca        1 H8K     -0.033500
     25 C10         9.5570   -2.4360   -0.5090 ca        1 H8K     -0.106000
     26 C9          8.1580   -2.4210   -0.4740 ca        1 H8K     -0.095000
     27 H4         -0.4600   -0.1330   -0.8200 ho        1 H8K      0.417000
     28 H1          1.5700    0.8890   -0.7870 h1        1 H8K      0.044700
     29 H11         1.5390   -0.5330    1.9750 hc        1 H8K      0.078700
     30 H12         1.5370    1.2460    1.6590 hc        1 H8K      0.078700
     31 H9          3.8070    0.4350    2.2920 hc        1 H8K      0.064700
     32 H10         3.7850    1.1270    0.6120 hc        1 H8K      0.064700
     33 H2          3.5640   -1.8990    1.3350 hx        1 H8K      0.108700
     34 H8          3.7930   -2.2170   -1.1720 hc        1 H8K      0.064700
     35 H7          3.7800   -0.4150   -1.4020 hc        1 H8K      0.064700
     36 H6          1.5290   -2.1480   -0.1470 hc        1 H8K      0.078700
     37 H5          1.5310   -1.3750   -1.7810 hc        1 H8K      0.078700
     38 H13         5.7720   -0.6330    1.5860 hn        1 H8K      0.446800
     39 H15         5.5780   -3.0380   -0.1710 hx        1 H8K      0.104200
     40 H14         5.5820   -3.0330    1.6630 hx        1 H8K      0.104200
     41 H23         7.6180   -2.7110    2.9080 ha        1 H8K      0.138000
     42 H19        10.3680   -1.9190    3.8250 hc        1 H8K      0.078700
     43 H18        10.3380   -3.7300    3.6510 hc        1 H8K      0.078700
     44 H22        16.1330   -2.6170    3.0740 ha        1 H8K      0.165000
     45 H21        16.7000   -2.9870    5.8050 h4        1 H8K      0.069100
     46 H20        12.5720   -3.2510    5.5660 h4        1 H8K      0.060100
     47 H3         14.7370   -2.6550    1.1190 hn        1 H8K      0.335700
     48 H17        10.0940   -2.3730   -1.4680 ha        1 H8K      0.170000
     49 H16         7.6000   -2.3560   -1.4220 ha        1 H8K      0.134000
     50 H121        5.8370   -0.6130   -0.0700 hn        1 H8K      0.446800
@<TRIPOS>BOND
     1    1    2 1
     2    1   27 1
     3    2    3 1
     4    2    7 1
     5    2   28 1
     6    3    4 1
     7    3   29 1
     8    3   30 1
     9    4    5 1
    10    4   31 1
    11    4   32 1
    12    5    6 1
    13    5    8 1
    14    5   33 1
    15    6    7 1
    16    6   34 1
    17    6   35 1
    18    7   36 1
    19    7   37 1
    20    8    9 1
    21    8   38 1
    22    8   50 1
    23    9   10 1
    24    9   39 1
    25    9   40 1
    26   10   11 ar
    27   10   26 ar
    28   11   12 ar
    29   11   41 1
    30   12   13 1
    31   12   24 ar
    32   13   14 1
    33   13   42 1
    34   13   43 1
    35   14   15 2
    36   14   23 1
    37   15   16 1
    38   15   21 1
    39   16   17 1
    40   16   20 2
    41   17   18 2
    42   17   44 1
    43   18   19 1
    44   18   45 1
    45   19   20 1
    46   20   46 1
    47   21   22 1
    48   21   47 1
    49   22   23 2
    50   23   24 1
    51   24   25 ar
    52   25   26 ar
    53   25   48 1
    54   26   49 1
@<TRIPOS>SUBSTRUCTURE
     1 H8K         1 TEMP              0 ****  ****    0 ROOT
