@<TRIPOS>MOLECULE
H8M
   49    52     1     0     0
SMALL
bcc


@<TRIPOS>ATOM
      1 CAA          0.0000     0.0000     0.0000 c3         1 H8M       0.240700
      2 CAB          4.5340    -1.2740    -0.3950 c3         1 H8M       0.250700
      3 CAE          1.9210    -0.0000     3.6060 ca         1 H8M      -0.057000
      4 CAF          1.2930     0.0000     2.3750 ca         1 H8M      -0.203000
      5 CAG          6.1080     1.1200    11.1900 ca         1 H8M      -0.086000
      6 CAH          5.1430     0.6270    10.3290 ca         1 H8M      -0.104000
      7 CAI          7.1690     2.4460     9.4740 ca         1 H8M      -0.046000
      8 CAJ          5.8430     3.2750     4.9700 c3         1 H8M       0.144800
      9 CAK          6.7270     3.0630     6.2060 c3         1 H8M       0.076800
     10 CAL          3.9810    -0.0020     5.0270 c3         1 H8M       0.026900
     11 CAQ          7.0910     2.0030    10.7720 ca         1 H8M      -0.122300
     12 CAR          3.3010    -0.0010     3.6820 ca         1 H8M      -0.127300
     13 CAS          4.0600    -0.0010     2.5250 ca         1 H8M      -0.036600
     14 CAT          2.0460    -0.0000     1.2110 ca         1 H8M       0.137100
     15 CAU          5.9750     2.1840     7.1720 cc         1 H8M      -0.132400
     16 CAV          3.4350    -0.0020     1.2860 ca         1 H8M       0.085100
     17 CAW          4.8920     1.4500     6.8250 cd         1 H8M      -0.275300
     18 CAX          5.2010     1.0550     9.0050 ca         1 H8M      -0.237200
     19 CAY          6.2120     1.9560     8.5800 ca         1 H8M      -0.086800
     20 CAZ          4.3230     1.4350     5.4260 c3         1 H8M       0.218700
     21 NAM          5.3350     1.9770     4.5040 n7         1 H8M      -0.575200
     22 NAN          4.4240     0.7730     7.9170 na         1 H8M       0.381600
     23 OAO          1.4290     0.0000     0.0000 os         1 H8M      -0.290900
     24 OAP          4.1790    -0.0010     0.1480 os         1 H8M      -0.316900
     25 H1          -0.3610     0.0440    -1.0200 h1         1 H8M      -0.001633
     26 H2          -0.3610    -0.9060     0.4720 h1         1 H8M      -0.001633
     27 H3          -0.3610     0.8620     0.5480 h1         1 H8M      -0.001633
     28 H4           5.6030    -1.3090    -0.5650 h1         1 H8M      -0.006633
     29 H5           4.0140    -1.4240    -1.3340 h1         1 H8M      -0.006633
     30 H6           4.2540    -2.0550     0.3020 h1         1 H8M      -0.006633
     31 H7           8.0830     1.8580    12.6500 hc         1 H8M       0.004033
     32 H8           7.8660     3.5110    12.0580 hc         1 H8M       0.004033
     33 H9           9.0920     2.4650    11.3300 hc         1 H8M       0.004033
     34 H10          1.3300    -0.0000     4.5140 ha         1 H8M       0.105000
     35 H11          0.2110     0.0010     2.3190 ha         1 H8M       0.124000
     36 H12          6.0950     0.8050    12.2260 ha         1 H8M       0.100000
     37 H13          4.3810    -0.0640    10.6690 ha         1 H8M       0.104000
     38 H14          7.7090     3.3570     9.2440 ha         1 H8M       0.110000
     39 H15          5.0090     3.9160     5.2290 h1         1 H8M       0.007700
     40 H16          6.4290     3.7350     4.1830 h1         1 H8M       0.007700
     41 H17          7.6510     2.5790     5.9160 hc         1 H8M       0.020700
     42 H18          6.9390     4.0180     6.6710 hc         1 H8M       0.020700
     43 H19          3.3180    -0.4350     5.7660 hc         1 H8M       0.030700
     44 H20          4.8910    -0.5880     4.9710 hc         1 H8M       0.030700
     45 H21          3.4320     2.0510     5.3900 h1         1 H8M       0.011700
     46 H22          4.8280     2.1480     3.6590 hn         1 H8M       0.259800
     47 H24          3.6300     0.1630     7.9200 hn         1 H8M       0.110700
     48 ClAD         5.7930    -0.0010     2.6230 cl         1 H8M       0.036600
     49 CAC          8.1040     2.4940    11.7730 c3         1 H8M       0.066200
@<TRIPOS>BOND
     1     1    23 1   
     2     1    25 1   
     3     1    26 1   
     4     1    27 1   
     5     2    24 1   
     6     2    28 1   
     7     2    29 1   
     8     2    30 1   
     9     3     4 ar  
    10     3    12 ar  
    11     3    34 1   
    12     4    14 ar  
    13     4    35 1   
    14     5     6 ar  
    15     5    11 ar  
    16     5    36 1   
    17     6    18 ar  
    18     6    37 1   
    19     7    11 ar  
    20     7    19 ar  
    21     7    38 1   
    22     8     9 1   
    23     8    21 1   
    24     8    39 1   
    25     8    40 1   
    26     9    15 1   
    27     9    41 1   
    28     9    42 1   
    29    10    12 1   
    30    10    20 1   
    31    10    43 1   
    32    10    44 1   
    33    11    49 1   
    34    12    13 ar  
    35    13    16 ar  
    36    13    48 1   
    37    14    16 ar  
    38    14    23 1   
    39    15    17 2   
    40    15    19 1   
    41    16    24 1   
    42    17    20 1   
    43    17    22 1   
    44    18    19 ar  
    45    18    22 1   
    46    20    21 1   
    47    20    45 1   
    48    21    46 1   
    49    22    47 1   
    50    31    49 1   
    51    32    49 1   
    52    33    49 1   
@<TRIPOS>SUBSTRUCTURE
     1 H8M         1 TEMP              0 ****  ****    0 ROOT
