@<TRIPOS>MOLECULE
molecule
   49    52     1     0     0
SMALL
bcc


@<TRIPOS>ATOM
      1 CAA          0.0000     0.0000     0.0000 c3         1 H8M       0.125700
      2 CAB          4.5340    -1.2740    -0.3950 c3         1 H8M       0.135700
      3 CAE          1.9210    -0.0000     3.6060 ca         1 H8M      -0.088000
      4 CAF          1.2930     0.0000     2.3750 ca         1 H8M      -0.215000
      5 CAG          6.1080     1.1200    11.1900 ca         1 H8M      -0.109000
      6 CAH          5.1430     0.6270    10.3290 ca         1 H8M      -0.144000
      7 CAI          7.1690     2.4460     9.4740 ca         1 H8M      -0.078000
      8 CAJ          5.8430     3.2750     4.9700 c3         1 H8M       0.141800
      9 CAK          6.7270     3.0630     6.2060 c3         1 H8M       0.003800
     10 CAL          3.9810    -0.0020     5.0270 c3         1 H8M      -0.025100
     11 CAQ          7.0910     2.0030    10.7720 ca         1 H8M      -0.114300
     12 CAR          3.3010    -0.0010     3.6820 ca         1 H8M      -0.119300
     13 CAS          4.0600    -0.0010     2.5250 ca         1 H8M       0.039400
     14 CAT          2.0460    -0.0000     1.2110 ca         1 H8M       0.132100
     15 CAU          5.9750     2.1840     7.1720 cc         1 H8M      -0.133400
     16 CAV          3.4350    -0.0020     1.2860 ca         1 H8M       0.084100
     17 CAW          4.8920     1.4500     6.8250 cd         1 H8M      -0.067300
     18 CAX          5.2010     1.0550     9.0050 ca         1 H8M      -0.042200
     19 CAY          6.2120     1.9560     8.5800 ca         1 H8M      -0.091800
     20 CAZ          4.3230     1.4350     5.4260 c3         1 H8M       0.224700
     21 NAM          5.3350     1.9770     4.5040 n7         1 H8M      -0.767200
     22 NAN          4.4240     0.7730     7.9170 na         1 H8M      -0.169400
     23 OAO          1.4290     0.0000     0.0000 os         1 H8M      -0.310900
     24 OAP          4.1790    -0.0010     0.1480 os         1 H8M      -0.330900
     25 H1          -0.3610     0.0440    -1.0200 h1         1 H8M       0.043367
     26 H2          -0.3610    -0.9060     0.4720 h1         1 H8M       0.043367
     27 H3          -0.3610     0.8620     0.5480 h1         1 H8M       0.043367
     28 H4           5.6030    -1.3090    -0.5650 h1         1 H8M       0.038033
     29 H5           4.0140    -1.4240    -1.3340 h1         1 H8M       0.038033
     30 H6           4.2540    -2.0550     0.3020 h1         1 H8M       0.038033
     31 H7           8.0830     1.8580    12.6500 hc         1 H8M       0.039367
     32 H8           7.8660     3.5110    12.0580 hc         1 H8M       0.039367
     33 H9           9.0920     2.4650    11.3300 hc         1 H8M       0.039367
     34 H10          1.3300    -0.0000     4.5140 ha         1 H8M       0.136000
     35 H11          0.2110     0.0010     2.3190 ha         1 H8M       0.142000
     36 H12          6.0950     0.8050    12.2260 ha         1 H8M       0.126000
     37 H13          4.3810    -0.0640    10.6690 ha         1 H8M       0.130000
     38 H14          7.7090     3.3570     9.2440 ha         1 H8M       0.137000
     39 H15          5.0090     3.9160     5.2290 h1         1 H8M       0.036700
     40 H16          6.4290     3.7350     4.1830 h1         1 H8M       0.036700
     41 H17          7.6510     2.5790     5.9160 hc         1 H8M       0.054200
     42 H18          6.9390     4.0180     6.6710 hc         1 H8M       0.054200
     43 H19          3.3180    -0.4350     5.7660 hc         1 H8M       0.063200
     44 H20          4.8910    -0.5880     4.9710 hc         1 H8M       0.063200
     45 H21          3.4320     2.0510     5.3900 h1         1 H8M       0.035700
     46 H22          4.8280     2.1480     3.6590 hn         1 H8M       0.350800
     47 H24          3.6300     0.1630     7.9200 hn         1 H8M       0.292700
     48 ClAD         5.7930    -0.0010     2.6230 cl         1 H8M      -0.055400
     49 CAC          8.1040     2.4940    11.7730 c3         1 H8M      -0.044800
@<TRIPOS>BOND
     1     9     8 1
     2     9    15 1
     3     8    21 1
     4     7    19 ar
     5     7    11 ar
     6    21    20 1
     7    49    11 1
     8    15    19 1
     9    15    17 2
    10    19    18 ar
    11    11     5 ar
    12    17    20 1
    13    17    22 1
    14    20    10 1
    15     3     4 ar
    16     3    12 ar
    17     4    14 ar
    18    18    22 1
    19    18     6 ar
    20     5     6 ar
    21    10    12 1
    22    12    13 ar
    23    14    23 1
    24    14    16 ar
    25    23     1 1
    26    13    16 ar
    27    13    48 1
    28    16    24 1
    29    24     2 1
    30     1    25 1
    31     1    26 1
    32     1    27 1
    33     2    28 1
    34     2    29 1
    35     2    30 1
    36    49    31 1
    37    49    32 1
    38    49    33 1
    39     3    34 1
    40     4    35 1
    41     5    36 1
    42     6    37 1
    43     7    38 1
    44     8    39 1
    45     8    40 1
    46     9    41 1
    47     9    42 1
    48    10    43 1
    49    10    44 1
    50    20    45 1
    51    21    46 1
    52    22    47 1
@<TRIPOS>SUBSTRUCTURE
     1 H8M         1 TEMP              0 ****  ****    0 ROOT
