@<TRIPOS>MOLECULE
H8N
   14    14     1     0     0
SMALL
bcc


@<TRIPOS>ATOM
      1 NAA         -1.2720     0.0110    -2.2310 n1         1 H8N      -0.379800
      2 CAC         -0.7180     0.0010    -1.2390 cg         1 H8N       0.231800
      3 CAI          0.0000     0.0000     0.0000 ca         1 H8N       0.018000
      4 CAF          1.3970     0.0000     0.0000 ca         1 H8N      -0.043000
      5 CAD          2.0840     0.0000     1.1950 ca         1 H8N      -0.155000
      6 CAH          1.3880    -0.0010     2.3980 ca         1 H8N       0.122100
      7 OAB          2.0680    -0.0010     3.5720 oh         1 H8N      -0.488100
      8 CAE         -0.0020    -0.0010     2.4020 ca         1 H8N      -0.155000
      9 CAG         -0.6960     0.0050     1.2120 ca         1 H8N      -0.043000
     10 H1           1.8170    -0.3270    -0.9440 ha         1 H8N       0.118000
     11 H2           3.1470     0.0490     1.3980 ha         1 H8N       0.124000
     12 H3           1.9580     0.8850     3.8750 ho         1 H8N       0.407000
     13 H4          -0.4980    -0.2970     3.3180 ha         1 H8N       0.124000
     14 H5          -1.7420    -0.1140     1.4660 ha         1 H8N       0.118000
@<TRIPOS>BOND
     1     1     2 3   
     2     2     3 1   
     3     3     4 ar  
     4     3     9 ar  
     5     4     5 ar  
     6     4    10 1   
     7     5     6 ar  
     8     5    11 1   
     9     6     7 1   
    10     6     8 ar  
    11     7    12 1   
    12     8     9 ar  
    13     8    13 1   
    14     9    14 1   
@<TRIPOS>SUBSTRUCTURE
     1 H8N         1 TEMP              0 ****  ****    0 ROOT
