@<TRIPOS>MOLECULE
molecule
   14    14     1     0     0
SMALL
bcc


@<TRIPOS>ATOM
      1 NAA         -1.2720     0.0110    -2.2310 n1         1 H8N      -0.358800
      2 CAC         -0.7180     0.0010    -1.2390 cg         1 H8N       0.238800
      3 CAI          0.0000     0.0000     0.0000 ca         1 H8N      -0.020000
      4 CAF          1.3970     0.0000     0.0000 ca         1 H8N      -0.071000
      5 CAD          2.0840     0.0000     1.1950 ca         1 H8N      -0.171000
      6 CAH          1.3880    -0.0010     2.3980 ca         1 H8N       0.104100
      7 OAB          2.0680    -0.0010     3.5720 oh         1 H8N      -0.504100
      8 CAE         -0.0020    -0.0010     2.4020 ca         1 H8N      -0.171000
      9 CAG         -0.6960     0.0050     1.2120 ca         1 H8N      -0.071000
     10 H1           1.8170    -0.3270    -0.9440 ha         1 H8N       0.150000
     11 H2           3.1470     0.0490     1.3980 ha         1 H8N       0.152000
     12 H3           1.9580     0.8850     3.8750 ho         1 H8N       0.422000
     13 H4          -0.4980    -0.2970     3.3180 ha         1 H8N       0.152000
     14 H5          -1.7420    -0.1140     1.4660 ha         1 H8N       0.150000
@<TRIPOS>BOND
     1     7     6 1
     2     6     5 ar
     3     6     8 ar
     4     5     4 ar
     5     8     9 ar
     6     4     3 ar
     7     9     3 ar
     8     3     2 1
     9     2     1 3
    10     4    10 1
    11     5    11 1
    12     7    12 1
    13     8    13 1
    14     9    14 1
@<TRIPOS>SUBSTRUCTURE
     1 H8N         1 TEMP              0 ****  ****    0 ROOT
