@<TRIPOS>MOLECULE
H8W
   54    57     1     0     0
SMALL
bcc


@<TRIPOS>ATOM
      1 C1           0.0000     0.0000     0.0000 c3         1 H8W       0.004900
      2 C2           1.5300     0.0000     0.0000 c3         1 H8W      -0.060700
      3 C3           2.0400     0.0000     1.4430 c3         1 H8W       0.004900
      4 C7           5.4240     0.1440    -1.4960 c3         1 H8W       0.032900
      5 C8           6.1660    -1.1620    -1.6090 ca         1 H8W       0.004700
      6 C9           5.5300    -2.3620    -1.5190 ca         1 H8W      -0.112300
      7 C10          6.2570    -3.5490    -1.6170 ca         1 H8W      -0.042000
      8 C11          7.6070    -3.5410    -1.8080 ca         1 H8W      -0.125000
      9 C12          8.2820    -2.3280    -1.9100 ca         1 H8W      -0.181200
     10 C13          7.5550    -1.1280    -1.8090 ca         1 H8W      -0.270900
     11 C14          8.5260    -0.0460    -1.9520 cc         1 H8W       0.433800
     12 C19          3.7430    -3.5460    -0.3180 ca         1 H8W      -0.134300
     13 C20          3.3370    -4.7950    -0.7530 ca         1 H8W      -0.098500
     14 C21          3.0710    -5.7930     0.1660 ca         1 H8W      -0.109000
     15 C22          3.2090    -5.5430     1.5180 ca         1 H8W      -0.049300
     16 C24          3.8810    -3.2960     1.0340 ca         1 H8W      -0.098500
     17 C27          3.9040    -8.5140     3.7970 c          1 H8W       0.979600
     18 O28          2.7890    -8.6410     4.2430 o          1 H8W      -0.903300
     19 C4           2.0390    -1.2500    -0.7210 c3         1 H8W       0.139800
     20 N5           3.5040    -1.1930    -0.8260 n3         1 H8W      -0.524600
     21 C6           3.9260    -0.0870    -1.7010 c3         1 H8W       0.135800
     22 N15          9.6990    -0.5860    -2.1190 nd         1 H8W      -0.653100
     23 N16          9.5940    -1.9810    -2.0990 na         1 H8W       0.409900
     24 C18          4.0400    -2.4590    -1.3190 c3         1 H8W       0.263100
     25 C23          3.6140    -4.2940     1.9530 ca         1 H8W      -0.109000
     26 C25          2.9180    -6.6310     2.5190 c3         1 H8W       0.028900
     27 C26          4.1950    -7.4250     2.7960 c3         1 H8W      -0.130400
     28 O29          4.8830    -9.3420     4.1920 o          1 H8W      -0.903300
     29 H1          -0.3610     0.8920     0.4970 hc         1 H8W       0.004367
     30 H2          -0.3610    -0.8770     0.5240 hc         1 H8W       0.004367
     31 H3          -0.3610    -0.0150    -1.0210 hc         1 H8W       0.004367
     32 H4           1.8920     0.8840    -0.5110 hc         1 H8W       0.023700
     33 H5           3.1220     0.0570     1.4440 hc         1 H8W       0.004367
     34 H6           1.7260    -0.9120     1.9370 hc         1 H8W       0.004367
     35 H7           1.6330     0.8550     1.9700 hc         1 H8W       0.004367
     36 H8           5.7870     0.8290    -2.2520 hc         1 H8W       0.022700
     37 H9           5.5890     0.5660    -0.5120 hc         1 H8W       0.022700
     38 H10          5.7370    -4.4960    -1.5420 ha         1 H8W       0.125000
     39 H11          8.1340    -4.4710    -1.9850 ha         1 H8W       0.106000
     40 H12          8.3090     1.0150    -1.9240 h4         1 H8W       0.008800
     41 H13          3.2290    -4.9910    -1.8120 ha         1 H8W       0.104500
     42 H14          2.7530    -6.7710    -0.1750 ha         1 H8W       0.111000
     43 H15          4.1990    -2.3180     1.3750 ha         1 H8W       0.104500
     44 H16          1.7520    -2.1320    -0.1610 h1         1 H8W       0.021200
     45 H17          1.6070    -1.2960    -1.7130 h1         1 H8W       0.021200
     46 H19          3.7370    -0.3490    -2.7350 h1         1 H8W       0.012700
     47 H20          3.3800     0.8110    -1.4410 h1         1 H8W       0.012700
     48 H22          3.5700    -2.7000    -2.2640 h1         1 H8W       0.011700
     49 H23          3.7230    -4.0980     3.0130 ha         1 H8W       0.111000
     50 H24          2.5610    -6.1880     3.4400 hc         1 H8W       0.027700
     51 H25          2.1600    -7.2940     2.1200 hc         1 H8W       0.027700
     52 H26          4.5520    -7.8680     1.8740 hc         1 H8W       0.007700
     53 H27          4.9530    -6.7610     3.1950 hc         1 H8W       0.007700
     54 H18         10.3550    -2.6220    -2.2060 hn         1 H8W       0.149700
@<TRIPOS>BOND
     1     1     2 1   
     2     1    29 1   
     3     1    30 1   
     4     1    31 1   
     5     2     3 1   
     6     2    19 1   
     7     2    32 1   
     8     3    33 1   
     9     3    34 1   
    10     3    35 1   
    11     4     5 1   
    12     4    21 1   
    13     4    36 1   
    14     4    37 1   
    15     5     6 ar  
    16     5    10 ar  
    17     6     7 ar  
    18     6    24 1   
    19     7     8 ar  
    20     7    38 1   
    21     8     9 ar  
    22     8    39 1   
    23     9    10 ar  
    24     9    23 1   
    25    10    11 1   
    26    11    22 2   
    27    11    40 1   
    28    12    13 ar  
    29    12    16 ar  
    30    12    24 1   
    31    13    14 ar  
    32    13    41 1   
    33    14    15 ar  
    34    14    42 1   
    35    15    25 ar  
    36    15    26 1   
    37    16    25 ar  
    38    16    43 1   
    39    17    18 1   
    40    17    27 1   
    41    17    28 1   
    42    19    20 1   
    43    19    44 1   
    44    19    45 1   
    45    20    21 1   
    46    20    24 1   
    47    21    46 1   
    48    21    47 1   
    49    22    23 1   
    50    23    54 1   
    51    24    48 1   
    52    25    49 1   
    53    26    27 1   
    54    26    50 1   
    55    26    51 1   
    56    27    52 1   
    57    27    53 1   
@<TRIPOS>SUBSTRUCTURE
     1 H8W         1 TEMP              0 ****  ****    0 ROOT
