@<TRIPOS>MOLECULE
molecule
   54    57     1     0     0
SMALL
bcc


@<TRIPOS>ATOM
      1 C1           0.0000     0.0000     0.0000 c3         1 H8W      -0.085600
      2 C2           1.5300     0.0000     0.0000 c3         1 H8W      -0.075700
      3 C3           2.0400     0.0000     1.4430 c3         1 H8W      -0.085600
      4 C7           5.4240     0.1440    -1.4960 c3         1 H8W      -0.031100
      5 C8           6.1660    -1.1620    -1.6090 ca         1 H8W       0.000700
      6 C9           5.5300    -2.3620    -1.5190 ca         1 H8W      -0.103300
      7 C10          6.2570    -3.5490    -1.6170 ca         1 H8W      -0.062000
      8 C11          7.6070    -3.5410    -1.8080 ca         1 H8W      -0.162000
      9 C12          8.2820    -2.3280    -1.9100 ca         1 H8W      -0.017200
     10 C13          7.5550    -1.1280    -1.8090 ca         1 H8W      -0.261900
     11 C14          8.5260    -0.0460    -1.9520 cc         1 H8W       0.375800
     12 C19          3.7430    -3.5460    -0.3180 ca         1 H8W      -0.121300
     13 C20          3.3370    -4.7950    -0.7530 ca         1 H8W      -0.119500
     14 C21          3.0710    -5.7930     0.1660 ca         1 H8W      -0.138000
     15 C22          3.2090    -5.5430     1.5180 ca         1 H8W      -0.047300
     16 C24          3.8810    -3.2960     1.0340 ca         1 H8W      -0.119500
     17 C27          3.9040    -8.5140     3.7970 c          1 H8W       0.890600
     18 O28          2.7890    -8.6410     4.2430 o          1 H8W      -0.853800
     19 C4           2.0390    -1.2500    -0.7210 c3         1 H8W       0.162800
     20 N5           3.5040    -1.1930    -0.8260 n3         1 H8W      -0.714600
     21 C6           3.9260    -0.0870    -1.7010 c3         1 H8W       0.154800
     22 N15          9.6990    -0.5860    -2.1190 nd         1 H8W      -0.517100
     23 N16          9.5940    -1.9810    -2.0990 na         1 H8W      -0.056100
     24 C18          4.0400    -2.4590    -1.3190 c3         1 H8W       0.278100
     25 C23          3.6140    -4.2940     1.9530 ca         1 H8W      -0.138000
     26 C25          2.9180    -6.6310     2.5190 c3         1 H8W      -0.030100
     27 C26          4.1950    -7.4250     2.7960 c3         1 H8W      -0.178400
     28 O29          4.8830    -9.3420     4.1920 o          1 H8W      -0.853800
     29 H1          -0.3610     0.8920     0.4970 hc         1 H8W       0.034700
     30 H2          -0.3610    -0.8770     0.5240 hc         1 H8W       0.034700
     31 H3          -0.3610    -0.0150    -1.0210 hc         1 H8W       0.034700
     32 H4           1.8920     0.8840    -0.5110 hc         1 H8W       0.041700
     33 H5           3.1220     0.0570     1.4440 hc         1 H8W       0.034700
     34 H6           1.7260    -0.9120     1.9370 hc         1 H8W       0.034700
     35 H7           1.6330     0.8550     1.9700 hc         1 H8W       0.034700
     36 H8           5.7870     0.8290    -2.2520 hc         1 H8W       0.053200
     37 H9           5.5890     0.5660    -0.5120 hc         1 H8W       0.053200
     38 H10          5.7370    -4.4960    -1.5420 ha         1 H8W       0.153000
     39 H11          8.1340    -4.4710    -1.9850 ha         1 H8W       0.131000
     40 H12          8.3090     1.0150    -1.9240 h4         1 H8W       0.055800
     41 H13          3.2290    -4.9910    -1.8120 ha         1 H8W       0.125500
     42 H14          2.7530    -6.7710    -0.1750 ha         1 H8W       0.135000
     43 H15          4.1990    -2.3180     1.3750 ha         1 H8W       0.125500
     44 H16          1.7520    -2.1320    -0.1610 h1         1 H8W       0.043200
     45 H17          1.6070    -1.2960    -1.7130 h1         1 H8W       0.043200
     46 H19          3.7370    -0.3490    -2.7350 h1         1 H8W       0.034700
     47 H20          3.3800     0.8110    -1.4410 h1         1 H8W       0.034700
     48 H22          3.5700    -2.7000    -2.2640 h1         1 H8W       0.030700
     49 H23          3.7230    -4.0980     3.0130 ha         1 H8W       0.135000
     50 H24          2.5610    -6.1880     3.4400 hc         1 H8W       0.056200
     51 H25          2.1600    -7.2940     2.1200 hc         1 H8W       0.056200
     52 H26          4.5520    -7.8680     1.8740 hc         1 H8W       0.032700
     53 H27          4.9530    -6.7610     3.1950 hc         1 H8W       0.032700
     54 H18         10.3550    -2.6220    -2.2060 hn         1 H8W       0.327700
@<TRIPOS>BOND
     1    19    20 1
     2    19     2 1
     3    16    25 ar
     4    16    12 ar
     5     7     8 ar
     6     7     6 ar
     7    24     6 1
     8    24    20 1
     9    24    12 1
    10     1     2 1
    11     8     9 ar
    12     6     5 ar
    13    21    20 1
    14    21     4 1
    15    25    15 ar
    16    12    13 ar
    17     9    10 ar
    18     9    23 1
    19     2     3 1
    20     5    10 ar
    21     5     4 1
    22    10    11 1
    23    23    22 1
    24    11    22 2
    25    15    26 1
    26    15    14 ar
    27    13    14 ar
    28    26    27 1
    29    18    17 1
    30    27    17 1
    31    17    28 1
    32     1    29 1
    33     1    30 1
    34     1    31 1
    35     2    32 1
    36     3    33 1
    37     3    34 1
    38     3    35 1
    39     4    36 1
    40     4    37 1
    41     7    38 1
    42     8    39 1
    43    11    40 1
    44    13    41 1
    45    14    42 1
    46    16    43 1
    47    19    44 1
    48    19    45 1
    49    21    46 1
    50    21    47 1
    51    24    48 1
    52    25    49 1
    53    26    50 1
    54    26    51 1
    55    27    52 1
    56    27    53 1
    57    23    54 1
@<TRIPOS>SUBSTRUCTURE
     1 H8W         1 TEMP              0 ****  ****    0 ROOT
