@<TRIPOS>MOLECULE
H90
   50    54     1     0     0
SMALL
bcc


@<TRIPOS>ATOM
      1 C1          0.3100    0.2810   -0.2960 ca        1 H90      0.380700
      2 C2          1.7100    0.2890   -0.1580 ca        1 H90     -0.223300
      3 C3          2.2600   -0.0380    1.0860 ca        1 H90     -0.074300
      4 C4          1.3940   -0.3490    2.1400 ca        1 H90     -0.223300
      5 C5          0.0090   -0.3320    1.8980 ca        1 H90      0.380700
      6 N6         -0.5370   -0.0290    0.7050 nb        1 H90     -0.673000
      7 C7          3.7490   -0.0900    1.2800 c3        1 H90      0.086600
      8 N8          4.4460    1.1810    1.3050 na        1 H90     -0.013800
      9 C9          4.3830    2.0230    2.4770 ca        1 H90      0.393800
     10 C10         4.5810    3.3840    2.0030 ca        1 H90     -0.282200
     11 C11         4.6460    3.2510    0.5500 cc        1 H90      0.431800
     12 N12         4.5030    1.9740    0.1890 nd        1 H90     -0.574100
     13 N13         4.2620    1.6690    3.7750 nb        1 H90     -0.690000
     14 C14         4.3480    2.7110    4.6510 cp        1 H90      0.433800
     15 C15         4.5450    4.0580    4.2720 ca        1 H90     -0.234300
     16 C16         4.6720    4.4180    2.9230 ca        1 H90     -0.025600
     17 C18         4.9040    5.8720    2.5130 c         1 H90      0.912200
     18 O19         5.0030    6.7210    3.4390 o         1 H90     -0.812300
     19 O20         4.9850    6.1250    1.2800 o         1 H90     -0.812300
     20 C21         4.2230    2.4070    6.0900 cp        1 H90     -0.083500
     21 C22         3.2920    1.4700    6.5580 ca        1 H90     -0.125500
     22 C23         3.1720    1.2200    7.9220 ca        1 H90     -0.093500
     23 C24         3.9700    1.9120    8.8430 ca        1 H90     -0.183600
     24 C25         4.9130    2.8360    8.3750 ca        1 H90     -0.093500
     25 C26         5.0420    3.0790    7.0110 ca        1 H90     -0.125500
     26 C27         3.8160    1.6300   10.2840 c         1 H90      0.593300
     27 O27         3.4590    0.5160   10.6960 o         1 H90     -0.546100
     28 C28         4.0970    2.7300   11.2370 ca        1 H90     -0.162600
     29 C29         3.8100    4.0620   10.9160 ca        1 H90     -0.085500
     30 C30         4.0630    5.0740   11.8420 ca        1 H90     -0.146000
     31 C31         4.6080    4.7630   13.0880 ca        1 H90     -0.113000
     32 C32         4.8910    3.4370   13.4140 ca        1 H90     -0.146000
     33 C33         4.6310    2.4220   12.4950 ca        1 H90     -0.085500
     34 H1         -0.1610    0.5390   -1.2600 h4        1 H90      0.014100
     35 H2          2.3550    0.5600   -1.0050 ha        1 H90      0.154500
     36 H4          1.7840   -0.5870    3.1390 ha        1 H90      0.154500
     37 H5         -0.7050   -0.5700    2.7060 h4        1 H90      0.014100
     38 H7          4.1910   -0.7000    0.4380 h1        1 H90      0.072200
     39 H7A         3.9850   -0.6040    2.2560 h1        1 H90      0.072200
     40 H11         4.7990    4.0930   -0.1360 h4        1 H90      0.089800
     41 H15         4.5950    4.8590    5.0270 ha        1 H90      0.169000
     42 H22         2.6540    0.9260    5.8440 ha        1 H90      0.151500
     43 H23         2.4490    0.4760    8.2910 ha        1 H90      0.139000
     44 H25         5.5620    3.3680    9.0880 ha        1 H90      0.139000
     45 H26         5.7880    3.8040    6.6490 ha        1 H90      0.151500
     46 H29         3.3830    4.3090    9.9310 ha        1 H90      0.149500
     47 H30         3.8350    6.1190   11.5840 ha        1 H90      0.133000
     48 H31         4.8120    5.5640   13.8130 ha        1 H90      0.128000
     49 H32         5.3180    3.1910   14.3970 ha        1 H90      0.133000
     50 H33         4.8350    1.3700   12.7490 ha        1 H90      0.149500
@<TRIPOS>BOND
     1    1    2 ar  
     2    1    6 ar  
     3    1   34 1   
     4    2    3 ar  
     5    2   35 1   
     6    3    4 ar  
     7    3    7 1   
     8    4    5 ar  
     9    4   36 1   
    10    5    6 ar  
    11    5   37 1   
    12    7    8 1   
    13    7   38 1   
    14    7   39 1   
    15    8    9 1   
    16    8   12 1   
    17    9   10 ar  
    18    9   13 ar  
    19   10   11 1   
    20   10   16 ar  
    21   11   12 2   
    22   11   40 1   
    23   13   14 ar  
    24   14   15 ar  
    25   14   20 1   
    26   15   16 ar  
    27   15   41 1   
    28   16   17 1   
    29   17   18 1   
    30   17   19 1   
    31   20   21 ar  
    32   20   25 ar  
    33   21   22 ar  
    34   21   42 1   
    35   22   23 ar  
    36   22   43 1   
    37   23   24 ar  
    38   23   26 1   
    39   24   25 ar  
    40   24   44 1   
    41   25   45 1   
    42   26   27 2   
    43   26   28 1   
    44   28   29 ar  
    45   28   33 ar  
    46   29   30 ar  
    47   29   46 1   
    48   30   31 ar  
    49   30   47 1   
    50   31   32 ar  
    51   31   48 1   
    52   32   33 ar  
    53   32   49 1   
    54   33   50 1   
@<TRIPOS>SUBSTRUCTURE
     1 H90         1 TEMP              0 ****  ****    0 ROOT
