@<TRIPOS>MOLECULE
molecule
   50    54     1     0     0
SMALL
bcc


@<TRIPOS>ATOM
      1 C1           0.0000     0.0000     0.0000 ca         1 H90       0.407200
      2 C2           1.3820     0.0000     0.0000 ca         1 H90      -0.228800
      3 C3           2.0580     0.0000     1.2100 ca         1 H90      -0.075300
      4 C4           1.3150    -0.0010     2.3810 ca         1 H90      -0.228800
      5 C5          -0.0650    -0.0020     2.3030 ca         1 H90       0.407200
      6 N6          -0.6740    -0.0010     1.1330 nb         1 H90      -0.698000
      7 C7           3.5640    -0.0010     1.2530 c3         1 H90       0.139600
      8 N8           4.0530     1.3800     1.2670 na         1 H90      -0.061800
      9 C9           4.2900     2.1380     2.3860 ca         1 H90       0.465800
     10 C10          4.7480     3.3910     1.9250 ca         1 H90      -0.329200
     11 C11          4.7670     3.3330     0.5160 cc         1 H90       0.429800
     12 N12          4.3640     2.1520     0.1420 nd         1 H90      -0.546100
     13 N13          4.1700     1.9050     3.6830 nb         1 H90      -0.757000
     14 C14          4.4700     2.8220     4.5880 cp         1 H90       0.484800
     15 C15          4.9290     4.0900     4.2180 ca         1 H90      -0.252300
     16 C16          5.0770     4.3920     2.8690 ca         1 H90       0.006400
     17 C18          5.5590     5.7190     2.4340 c          1 H90       0.879200
     18 O19          5.8650     6.6590     3.3500 o          1 H90      -0.822300
     19 O20          5.6810     5.9640     1.2500 o          1 H90      -0.822300
     20 C21          4.3140     2.4990     6.0260 cp         1 H90      -0.087500
     21 C22          3.8560     1.2380     6.4110 ca         1 H90      -0.125000
     22 C23          3.7110     0.9370     7.7460 ca         1 H90      -0.095500
     23 C24          4.0230     1.8940     8.7170 ca         1 H90      -0.187600
     24 C25          4.4820     3.1560     8.3290 ca         1 H90      -0.095500
     25 C26          4.6310     3.4540     6.9940 ca         1 H90      -0.125000
     26 C27          3.8680     1.5720    10.1490 c          1 H90       0.594300
     27 O27          3.6010     0.4360    10.4920 o          1 H90      -0.542100
     28 C28          4.0350     2.6300    11.1670 ca         1 H90      -0.158600
     29 C29          3.6380     3.9400    10.8890 ca         1 H90      -0.088500
     30 C30          3.7980     4.9240    11.8430 ca         1 H90      -0.142500
     31 C31          4.3480     4.6140    13.0740 ca         1 H90      -0.112000
     32 C32          4.7430     3.3180    13.3570 ca         1 H90      -0.142500
     33 C33          4.5840     2.3240    12.4130 ca         1 H90      -0.088500
     34 H1          -0.5360     0.0000    -0.9420 h4         1 H90       0.016600
     35 H2           1.9300     0.0010    -0.9340 ha         1 H90       0.147500
     36 H4           1.8100    -0.0010     3.3450 ha         1 H90       0.147500
     37 H5          -0.6530    -0.0020     3.2130 h4         1 H90       0.016600
     38 H7           3.9000    -0.5120     2.1470 h1         1 H90       0.066200
     39 H7A          3.9500    -0.5120     0.3790 h1         1 H90       0.066200
     40 H11          5.0720     4.1350    -0.1450 h4         1 H90       0.093800
     41 H15          5.1700     4.8270     4.9740 ha         1 H90       0.166000
     42 H22          3.6150     0.4970     5.6590 ha         1 H90       0.156500
     43 H23          3.3550    -0.0420     8.0450 ha         1 H90       0.141500
     44 H25          4.7260     3.8980     9.0790 ha         1 H90       0.141500
     45 H26          4.9870     4.4320     6.6930 ha         1 H90       0.156500
     46 H29          3.2070     4.1830     9.9250 ha         1 H90       0.148000
     47 H30          3.4900     5.9400    11.6280 ha         1 H90       0.131000
     48 H31          4.4730     5.3910    13.8190 ha         1 H90       0.126000
     49 H32          5.1720     3.0830    14.3230 ha         1 H90       0.131000
     50 H33          4.8940     1.3100    12.6360 ha         1 H90       0.148000
@<TRIPOS>BOND
     1     2     1 ar
     2     1     6 ar
     3     1    34 1
     4     3     2 ar
     5     2    35 1
     6     7     3 1
     7     3     4 ar
     8     4     5 ar
     9     4    36 1
    10     5     6 ar
    11     5    37 1
    12     8     7 1
    13     7    38 1
    14     7    39 1
    15     9     8 1
    16    12     8 1
    17    10     9 ar
    18    13     9 ar
    19    16    10 ar
    20    10    11 1
    21    11    12 2
    22    11    40 1
    23    14    13 ar
    24    15    14 ar
    25    20    14 1
    26    15    16 ar
    27    15    41 1
    28    17    16 1
    29    19    17 1
    30    17    18 1
    31    25    20 ar
    32    20    21 ar
    33    22    21 ar
    34    21    42 1
    35    23    22 ar
    36    22    43 1
    37    24    23 ar
    38    26    23 1
    39    24    25 ar
    40    24    44 1
    41    25    45 1
    42    27    26 2
    43    26    28 1
    44    29    28 ar
    45    28    33 ar
    46    29    30 ar
    47    29    46 1
    48    30    31 ar
    49    30    47 1
    50    31    32 ar
    51    31    48 1
    52    33    32 ar
    53    32    49 1
    54    33    50 1
@<TRIPOS>SUBSTRUCTURE
     1 H90         1 TEMP              0 ****  ****    0 ROOT
