@<TRIPOS>MOLECULE
molecule
   62    66     1     0     0
SMALL
bcc


@<TRIPOS>ATOM
      1 N            0.0000     0.0000     0.0000 n3         1 H91      -0.731600
      2 C            1.4690     0.0000     0.0000 c3         1 H91       0.150100
      3 O           -6.2960    -1.1100    -1.6960 o          1 H91      -0.718500
      4 C1          -0.5260     0.0000     1.3720 c3         1 H91       0.150100
      5 C10         -8.5460     1.3020    -3.0520 c3         1 H91       0.190300
      6 C11         -7.7360     2.4410    -3.6250 ca         1 H91      -0.261600
      7 C12         -8.3370     3.5760    -4.1360 ca         1 H91       0.457200
      8 C13         -6.2870     4.5180    -4.6670 ca         1 H91       0.437600
      9 C14         -5.5460     5.5870    -5.2050 ca         1 H91      -0.166300
     10 C15         -4.1890     5.5290    -5.2350 ca         1 H91      -0.100000
     11 C16         -3.5030     4.4120    -4.7330 cp         1 H91      -0.046000
     12 C17         -4.2020     3.3420    -4.2010 ca         1 H91      -0.105000
     13 C18         -5.6010     3.3850    -4.1610 ca         1 H91      -0.149300
     14 C19         -6.3570     2.3190    -3.6250 ca         1 H91       0.103600
     15 C2          -0.5260     1.1380    -0.7660 c3         1 H91       0.163800
     16 C20         -2.0210     4.3740    -4.7800 cp         1 H91      -0.026000
     17 C21         -1.2980     5.5520    -4.9650 ca         1 H91      -0.105500
     18 C22          0.0800     5.5150    -5.0080 ca         1 H91       0.009900
     19 C23          0.7480     4.3060    -4.8660 ca         1 H91       0.119100
     20 C24          0.0310     3.1310    -4.6810 ca         1 H91       0.009900
     21 C25         -1.3480     3.1640    -4.6320 ca         1 H91      -0.105500
     22 C3          -2.0350     0.9720    -0.9550 c3         1 H91      -0.071700
     23 C4          -2.6070     2.2260    -1.6180 c3         1 H91      -0.078400
     24 C5          -4.1160     2.0600    -1.8070 c3         1 H91      -0.102400
     25 C6          -4.3880     0.8440    -2.6950 c3         1 H91       0.124700
     26 C7          -3.8150    -0.4100    -2.0320 c3         1 H91      -0.102400
     27 C8          -2.3070    -0.2440    -1.8430 c3         1 H91      -0.078400
     28 C9          -6.7070    -0.2180    -2.4130 c          1 H91       0.866500
     29 N1          -5.8330     0.6850    -2.8760 n          1 H91      -0.464000
     30 N2          -7.7930     0.1450    -2.5360 ns         1 H91      -0.520900
     31 N3          -7.6230     4.5630    -4.6330 nb         1 H91      -0.683000
     32 O1           2.1060     4.2710    -4.9130 oh         1 H91      -0.499100
     33 Cl           0.9800     6.9810    -5.2380 cl         1 H91      -0.077400
     34 Cl1          0.8700     1.6210    -4.5040 cl         1 H91      -0.077400
     35 H2           1.8300    -0.6670     0.7730 h1         1 H91       0.031700
     36 H3           1.8300    -0.3360    -0.9640 h1         1 H91       0.031700
     37 H4           1.8300     1.0030     0.1910 h1         1 H91       0.031700
     38 H5           0.1680    -0.5140     2.0250 h1         1 H91       0.031700
     39 H6          -1.4830    -0.5070     1.3910 h1         1 H91       0.031700
     40 H7          -0.6520     1.0210     1.7100 h1         1 H91       0.031700
     41 H8          -9.2130     0.9450    -3.8280 h1         1 H91       0.056700
     42 H9          -9.1460     1.6960    -2.2410 h1         1 H91       0.056700
     43 H10         -9.4170     3.6550    -4.1270 h4         1 H91       0.030100
     44 H11         -6.0590     6.4570    -5.5970 ha         1 H91       0.157000
     45 H12         -3.6290     6.3590    -5.6480 ha         1 H91       0.140000
     46 H13         -3.6710     2.4810    -3.8150 ha         1 H91       0.176000
     47 H14         -0.0420     1.1760    -1.7340 h1         1 H91       0.036200
     48 H15         -0.3290     2.0570    -0.2280 h1         1 H91       0.036200
     49 H16         -1.8190     6.4960    -5.0770 ha         1 H91       0.156000
     50 H17         -1.9070     2.2470    -4.4880 ha         1 H91       0.156000
     51 H18         -2.5100     0.8270     0.0080 hc         1 H91       0.058700
     52 H19         -2.4170     3.0860    -0.9870 hc         1 H91       0.046950
     53 H20         -2.1380     2.3690    -2.5840 hc         1 H91       0.046950
     54 H21         -4.5850     1.9120    -0.8420 hc         1 H91       0.063200
     55 H22         -4.5200     2.9480    -2.2790 hc         1 H91       0.063200
     56 H23         -3.9130     0.9900    -3.6580 h1         1 H91       0.043700
     57 H24         -4.2850    -0.5530    -1.0660 hc         1 H91       0.063200
     58 H25         -4.0060    -1.2700    -2.6630 hc         1 H91       0.063200
     59 H26         -1.9030    -1.1310    -1.3710 hc         1 H91       0.046950
     60 H27         -1.8370    -0.0960    -2.8080 hc         1 H91       0.046950
     61 H28         -8.2740    -0.6390    -2.1440 hn         1 H91       0.325500
     62 H29          2.3860     4.1700    -5.8080 ho         1 H91       0.429000
@<TRIPOS>BOND
     1     4     1 1
     2     1     2 1
     3     1    15 1
     4    32    19 1
     5    15    22 1
     6    34    20 1
     7    19    20 ar
     8    19    18 ar
     9    33    18 1
    10    20    21 ar
    11    22    23 1
    12    22    27 1
    13    18    17 ar
    14    23    24 1
    15    27    26 1
    16    21    16 ar
    17    17    16 ar
    18    16    11 1
    19    24    25 1
    20    26    25 1
    21    25    29 1
    22    11    12 ar
    23    11    10 ar
    24    12    13 ar
    25    10     9 ar
    26    29    14 1
    27    29    28 1
    28    13    14 ar
    29    13     8 ar
    30     3    28 2
    31    14     6 ar
    32     9     8 ar
    33    28    30 1
    34     8    31 ar
    35     6     5 1
    36     6     7 ar
    37    30     5 1
    38    31     7 ar
    39     2    35 1
    40     2    36 1
    41     2    37 1
    42     4    38 1
    43     4    39 1
    44     4    40 1
    45     5    41 1
    46     5    42 1
    47     7    43 1
    48     9    44 1
    49    10    45 1
    50    12    46 1
    51    15    47 1
    52    15    48 1
    53    17    49 1
    54    21    50 1
    55    22    51 1
    56    23    52 1
    57    23    53 1
    58    24    54 1
    59    24    55 1
    60    25    56 1
    61    26    57 1
    62    26    58 1
    63    27    59 1
    64    27    60 1
    65    30    61 1
    66    32    62 1
@<TRIPOS>SUBSTRUCTURE
     1 H91         1 TEMP              0 ****  ****    0 ROOT
