@<TRIPOS>MOLECULE
molecule
   49    52     1     0     0
SMALL
bcc


@<TRIPOS>ATOM
      1 C10          0.0000     0.0000     0.0000 cc         1 H94       0.085400
      2 C11          1.3400     0.0000     0.0000 cc         1 H94      -0.763600
      3 C12         -0.8890    -0.0140     1.2170 c3         1 H94       0.051600
      4 C13         -1.9100    -1.1490     1.0920 c3         1 H94      -0.513400
      5 C14         -2.8480    -1.1210     2.3000 c3         1 H94      -0.031700
      6 C16         -2.5780     1.2770     2.5260 c3         1 H94      -0.031700
      7 C17         -1.6320     1.3210     1.3240 c3         1 H94      -0.513400
      8 C18         -4.4880     0.1880     3.3640 ca         1 H94       0.631200
      9 C19         -5.4870    -0.7830     3.3760 ca         1 H94      -0.224300
     10 C20         -6.4280    -0.7680     4.3700 ca         1 H94      -0.109300
     11 C21         -6.3500     0.2350     5.3490 ca         1 H94      -0.122300
     12 C22         -5.3220     1.1760     5.2750 ca         1 H94       0.486200
     13 C24         -7.3120     0.2910     6.4090 cg         1 H94       0.215800
     14 C31          1.7090    -0.7630     2.3350 c3         1 H94      -0.028100
     15 F32          0.9550     0.1130     3.1230 f          1 H94       0.161033
     16 F33          2.7360    -1.3160     3.1060 f          1 H94       0.161033
     17 C2           2.3110     0.0000     1.1550 c3         1 H94       0.997100
     18 O1           2.5940     1.3450     1.5450 oh         1 H94      -1.153800
     19 C7           1.7780     0.0080    -1.3450 cc         1 H94       0.534200
     20 N6           3.1430    -0.0100    -1.6660 ns         1 H94      -0.501400
     21 C4           4.0230    -0.2280    -0.6670 c          1 H94       0.795500
     22 O5           5.2030    -0.0440    -0.8790 o          1 H94      -0.685500
     23 C3           3.6010    -0.6880     0.6980 c3         1 H94      -0.877400
     24 N9          -0.4110     0.0220    -1.2890 na         1 H94      -0.012600
     25 N8           0.7280     0.0240    -2.1110 nd         1 H94      -0.536800
     26 N15         -3.5350     0.1750     2.3580 nh         1 H94      -0.466300
     27 N23         -4.4400     1.1280     4.2980 nb         1 H94      -0.648000
     28 N25         -8.0880     0.3410     7.2360 n1         1 H94      -0.302800
     29 C26         -7.6300    -1.8820     4.5530 c3         1 H94       0.709200
     30 F27         -8.8520    -1.0190     4.0950 f          1 H94      -0.196967
     31 F28         -7.3440    -2.8520     3.9110 f          1 H94      -0.196967
     32 F29         -7.7570    -2.1480     5.8930 f          1 H94      -0.196967
     33 H1          -0.2900    -0.1660     2.1070 hc         1 H94       0.081700
     34 H2          -2.2830    -1.1660     2.1080 hc         1 H94       0.155700
     35 H3          -1.4390    -1.9610     0.5520 hc         1 H94       0.155700
     36 H4          -3.4940    -0.3330     1.9330 h1         1 H94       0.156200
     37 H5          -3.4750    -1.9830     2.1070 h1         1 H94       0.156200
     38 H6          -3.1870     0.7070     1.8340 h1         1 H94       0.156200
     39 H7          -2.8710     2.2950     2.7500 h1         1 H94       0.156200
     40 H8          -2.1240     1.0890     2.2610 hc         1 H94       0.155700
     41 H9          -1.3700     2.3320     1.0380 hc         1 H94       0.155700
     42 H10         -5.4270    -1.6000     2.6680 ha         1 H94       0.162000
     43 H11         -5.3610     1.6600     6.2440 h4         1 H94       0.064100
     44 H12          3.1890     1.2180     2.2650 ho         1 H94       0.382000
     45 H13          3.7220     0.1680    -2.4620 hn         1 H94       0.369500
     46 H14          4.2720    -0.1540     0.0360 hc         1 H94       0.237700
     47 H15          4.1070    -1.2420     1.4790 hc         1 H94       0.237700
     48 H16         -1.3510     0.1260    -1.6170 hn         1 H94       0.342700
     49 F34          2.1290     0.1750     1.6100 f          1 H94       0.161033
@<TRIPOS>BOND
     1    18    17 1
     2    22    21 2
     3    23    21 1
     4    23    17 1
     5    21    20 1
     6    17     2 1
     7    17    14 1
     8     7     6 1
     9     7     3 1
    10     6    26 1
    11    20    19 1
    12     2    19 1
    13     2     1 2
    14    19    25 2
    15    49    14 1
    16    27    12 ar
    17    27     8 ar
    18     1     3 1
    19     1    24 1
    20    12    11 ar
    21     3     4 1
    22    25    24 1
    23    14    16 1
    24    14    15 1
    25    26     8 1
    26    26     5 1
    27     8     9 ar
    28    11    13 1
    29    11    10 ar
    30    13    28 3
    31     4     5 1
    32     9    10 ar
    33    10    29 1
    34    29    32 1
    35    29    31 1
    36    29    30 1
    37     3    33 1
    38     4    34 1
    39     4    35 1
    40     5    36 1
    41     5    37 1
    42     6    38 1
    43     6    39 1
    44     7    40 1
    45     7    41 1
    46     9    42 1
    47    12    43 1
    48    18    44 1
    49    20    45 1
    50    23    46 1
    51    23    47 1
    52    24    48 1
@<TRIPOS>SUBSTRUCTURE
     1 H94         1 TEMP              0 ****  ****    0 ROOT
