@<TRIPOS>MOLECULE
H98
   49    50     1     0     0
SMALL
bcc


@<TRIPOS>ATOM
      1 C1           0.0000     0.0000     0.0000 c3         1 H98      -0.032100
      2 C2           1.5300     0.0000     0.0000 c3         1 H98       0.116500
      3 C3           2.0390    -1.2490    -0.7220 c3         1 H98       0.042900
      4 C4           3.5410    -1.1900    -0.8300 ca         1 H98      -0.122300
      5 C5           4.1310    -0.5900    -1.9280 ca         1 H98      -0.049000
      6 C6           5.5070    -0.5340    -2.0300 ca         1 H98      -0.177500
      7 C7           6.2990    -1.0790    -1.0290 ca         1 H98       0.147100
      8 C8           5.7050    -1.6790     0.0710 ca         1 H98      -0.177500
      9 C9           4.3280    -1.7280     0.1710 ca         1 H98      -0.049000
     10 O1           7.6530    -1.0240    -1.1280 os         1 H98      -0.308900
     11 C10          8.4050    -1.6050    -0.0600 c3         1 H98       0.243700
     12 N1           2.0200     0.0000     1.3840 n7         1 H98      -0.589200
     13 C11          2.0840     1.3670     1.9200 c3         1 H98       0.132800
     14 C12          2.5970     1.3250     3.3610 c3         1 H98       0.250400
     15 C13          2.6620     2.7270     3.9110 ca         1 H98      -0.129300
     16 C14          3.8480     3.4340     3.8570 ca         1 H98      -0.090000
     17 C15          3.9090     4.7250     4.3630 ca         1 H98      -0.116400
     18 C16          2.7740     5.3030     4.9240 ca         1 H98       0.095100
     19 C17          1.5880     4.5880     4.9750 ca         1 H98      -0.145000
     20 C18          1.5330     3.3030     4.4640 ca         1 H98      -0.066000
     21 O2           2.8270     6.5680     5.4220 oh         1 H98      -0.504100
     22 N2           5.1110     5.4450     4.3090 ns         1 H98      -0.044100
     23 C19          6.0340     5.1440     3.3740 c          1 H98       0.600900
     24 O3           5.7870     4.3210     2.5190 o          1 H98      -0.641100
     25 O4           1.7110     0.5410     4.1610 oh         1 H98      -0.593800
     26 H1          -0.3610    -0.7790     0.6610 hc         1 H98       0.008700
     27 H2          -0.3610     0.9620     0.3440 hc         1 H98       0.008700
     28 H3          -0.3610    -0.1830    -1.0050 hc         1 H98       0.008700
     29 H4           1.8910     0.8840    -0.5110 h1         1 H98       0.038700
     30 H5           1.6070    -1.2950    -1.7140 hc         1 H98       0.017200
     31 H6           1.7520    -2.1320    -0.1620 hc         1 H98       0.017200
     32 H7           3.5120    -0.1640    -2.7090 ha         1 H98       0.104000
     33 H8           5.9680    -0.0640    -2.8900 ha         1 H98       0.115500
     34 H9           6.3210    -2.1030     0.8550 ha         1 H98       0.115500
     35 H10          3.8640    -2.1970     1.0310 ha         1 H98       0.104000
     36 H11          8.1600    -1.1040     0.8690 h1         1 H98      -0.003967
     37 H12          9.4630    -1.4950    -0.2620 h1         1 H98      -0.003967
     38 H13          8.1610    -2.6580     0.0230 h1         1 H98      -0.003967
     39 H14          1.4120    -0.5540     1.9540 hn         1 H98       0.266800
     40 H16          1.0950     1.8080     1.9020 h1         1 H98       0.021200
     41 H17          2.7560     1.9620     1.3140 h1         1 H98       0.021200
     42 H18          3.5860     0.8840     3.3800 h1         1 H98       0.017700
     43 H19          4.7290     2.9810     3.4190 ha         1 H98       0.159000
     44 H20          0.7030     5.0360     5.4090 ha         1 H98       0.112000
     45 H21          0.6060     2.7450     4.5040 ha         1 H98       0.119000
     46 H22          2.2590     7.1280     4.9200 ho         1 H98       0.407000
     47 H23          5.2940     6.1640     4.9800 hn         1 H98       0.179500
     48 H24          6.9930     5.6470     3.3800 h5         1 H98      -0.017800
     49 H25          2.2130     0.0000     4.7480 ho         1 H98       0.394000
@<TRIPOS>BOND
     1     1     2 1   
     2     1    26 1   
     3     1    27 1   
     4     1    28 1   
     5     2     3 1   
     6     2    12 1   
     7     2    29 1   
     8     3     4 1   
     9     3    30 1   
    10     3    31 1   
    11     4     5 ar  
    12     4     9 ar  
    13     5     6 ar  
    14     5    32 1   
    15     6     7 ar  
    16     6    33 1   
    17     7     8 ar  
    18     7    10 1   
    19     8     9 ar  
    20     8    34 1   
    21     9    35 1   
    22    10    11 1   
    23    11    36 1   
    24    11    37 1   
    25    11    38 1   
    26    12    13 1   
    27    12    39 1   
    28    13    14 1   
    29    13    40 1   
    30    13    41 1   
    31    14    15 1   
    32    14    25 1   
    33    14    42 1   
    34    15    16 ar  
    35    15    20 ar  
    36    16    17 ar  
    37    16    43 1   
    38    17    18 ar  
    39    17    22 1   
    40    18    19 ar  
    41    18    21 1   
    42    19    20 ar  
    43    19    44 1   
    44    20    45 1   
    45    21    46 1   
    46    22    23 1   
    47    22    47 1   
    48    23    24 2   
    49    23    48 1   
    50    25    49 1   
@<TRIPOS>SUBSTRUCTURE
     1 H98         1 TEMP              0 ****  ****    0 ROOT
