@<TRIPOS>MOLECULE
molecule
   49    50     1     0     0
SMALL
bcc


@<TRIPOS>ATOM
      1 C1           0.0000     0.0000     0.0000 c3         1 H98      -0.129100
      2 C2           1.5300     0.0000     0.0000 c3         1 H98       0.165500
      3 C3           2.0390    -1.2490    -0.7220 c3         1 H98      -0.020100
      4 C4           3.5410    -1.1900    -0.8300 ca         1 H98      -0.109300
      5 C5           4.1310    -0.5900    -1.9280 ca         1 H98      -0.079000
      6 C6           5.5070    -0.5340    -2.0300 ca         1 H98      -0.191500
      7 C7           6.2990    -1.0790    -1.0290 ca         1 H98       0.137100
      8 C8           5.7050    -1.6790     0.0710 ca         1 H98      -0.191500
      9 C9           4.3280    -1.7280     0.1710 ca         1 H98      -0.079000
     10 O1           7.6530    -1.0240    -1.1280 os         1 H98      -0.330900
     11 C10          8.4050    -1.6050    -0.0600 c3         1 H98       0.129700
     12 N1           2.0200     0.0000     1.3840 n7         1 H98      -0.817200
     13 C11          2.0840     1.3670     1.9200 c3         1 H98       0.160800
     14 C12          2.5970     1.3250     3.3610 c3         1 H98       0.195400
     15 C13          2.6620     2.7270     3.9110 ca         1 H98      -0.113300
     16 C14          3.8480     3.4340     3.8570 ca         1 H98      -0.117000
     17 C15          3.9090     4.7250     4.3630 ca         1 H98       0.036600
     18 C16          2.7740     5.3030     4.9240 ca         1 H98       0.074100
     19 C17          1.5880     4.5880     4.9750 ca         1 H98      -0.161000
     20 C18          1.5330     3.3030     4.4640 ca         1 H98      -0.103000
     21 O2           2.8270     6.5680     5.4220 oh         1 H98      -0.527100
     22 N2           5.1110     5.4450     4.3090 ns         1 H98      -0.477100
     23 C19          6.0340     5.1440     3.3740 c          1 H98       0.655900
     24 O3           5.7870     4.3210     2.5190 o          1 H98      -0.600100
     25 O4           1.7110     0.5410     4.1610 oh         1 H98      -0.611800
     26 H1          -0.3610    -0.7790     0.6610 hc         1 H98       0.038367
     27 H2          -0.3610     0.9620     0.3440 hc         1 H98       0.038367
     28 H3          -0.3610    -0.1830    -1.0050 hc         1 H98       0.038367
     29 H4           1.8910     0.8840    -0.5110 h1         1 H98       0.063700
     30 H5           1.6070    -1.2950    -1.7140 hc         1 H98       0.047200
     31 H6           1.7520    -2.1320    -0.1620 hc         1 H98       0.047200
     32 H7           3.5120    -0.1640    -2.7090 ha         1 H98       0.131500
     33 H8           5.9680    -0.0640    -2.8900 ha         1 H98       0.135500
     34 H9           6.3210    -2.1030     0.8550 ha         1 H98       0.135500
     35 H10          3.8640    -2.1970     1.0310 ha         1 H98       0.131500
     36 H11          8.1600    -1.1040     0.8690 h1         1 H98       0.039700
     37 H12          9.4630    -1.4950    -0.2620 h1         1 H98       0.039700
     38 H13          8.1610    -2.6580     0.0230 h1         1 H98       0.039700
     39 H14          1.4120    -0.5540     1.9540 hn         1 H98       0.361800
     40 H16          1.0950     1.8080     1.9020 h1         1 H98       0.047700
     41 H17          2.7560     1.9620     1.3140 h1         1 H98       0.047700
     42 H18          3.5860     0.8840     3.3800 h1         1 H98       0.055700
     43 H19          4.7290     2.9810     3.4190 ha         1 H98       0.177000
     44 H20          0.7030     5.0360     5.4090 ha         1 H98       0.139000
     45 H21          0.6060     2.7450     4.5040 ha         1 H98       0.148000
     46 H22          2.2590     7.1280     4.9200 ho         1 H98       0.422000
     47 H23          5.2940     6.1640     4.9800 hn         1 H98       0.336500
     48 H24          6.9930     5.6470     3.3800 h5         1 H98       0.031200
     49 H25          2.2130     0.0000     4.7480 ho         1 H98       0.407000
@<TRIPOS>BOND
     1    21    18 1
     2    24    23 2
     3    22    23 1
     4    22    17 1
     5    18    17 ar
     6    18    19 ar
     7    17    16 ar
     8    19    20 ar
     9    16    15 ar
    10    20    15 ar
    11    15    14 1
    12    14    13 1
    13    14    25 1
    14    13    12 1
    15    12     2 1
    16     1     2 1
    17     2     3 1
    18     3     4 1
    19     5     4 ar
    20     5     6 ar
    21     4     9 ar
    22     6     7 ar
    23    11    10 1
    24     9     8 ar
    25     7     8 ar
    26     7    10 1
    27     1    26 1
    28     1    27 1
    29     1    28 1
    30     2    29 1
    31     3    30 1
    32     3    31 1
    33     5    32 1
    34     6    33 1
    35     8    34 1
    36     9    35 1
    37    11    36 1
    38    11    37 1
    39    11    38 1
    40    12    39 1
    41    13    40 1
    42    13    41 1
    43    14    42 1
    44    16    43 1
    45    19    44 1
    46    20    45 1
    47    21    46 1
    48    22    47 1
    49    23    48 1
    50    25    49 1
@<TRIPOS>SUBSTRUCTURE
     1 H98         1 TEMP              0 ****  ****    0 ROOT
