@<TRIPOS>MOLECULE
molecule
   21    20     1     0     0
SMALL
bcc


@<TRIPOS>ATOM
      1 P1           0.0000     0.0000     0.0000 p5         1 H9A       1.174600
      2 O1           1.4800     0.0000     0.0000 o          1 H9A      -0.822500
      3 O2          -0.5360     0.0000     1.5180 os         1 H9A      -0.607200
      4 CM          -0.1480     0.9810     2.4820 c3         1 H9A       0.235100
      5 CM2         -1.3880     1.7260     2.9800 c3         1 H9A      -0.108100
      6 CM1          0.5420     0.2940     3.6610 c3         1 H9A      -0.108100
      7 C1          -0.6080    -1.4890    -0.8590 c3         1 H9A      -0.262600
      8 C2           0.0020    -1.5530    -2.2610 c3         1 H9A      -0.051100
      9 O3          -0.5370     1.3150    -0.7580 o          1 H9A      -0.822500
     10 H1           0.5370     1.6850     2.0240 h1         1 H9A       0.049700
     11 H2          -1.1110     2.3850     3.7940 hc         1 H9A       0.029200
     12 H3          -1.8080     2.3100     2.1700 hc         1 H9A       0.029200
     13 H4          -2.1230     1.0110     3.3280 hc         1 H9A       0.029200
     14 H5          -0.0970    -0.4920     4.0460 hc         1 H9A       0.029200
     15 H6           0.7320     1.0200     4.4420 hc         1 H9A       0.029200
     16 H7           1.4810    -0.1340     3.3310 hc         1 H9A       0.029200
     17 H8          -1.6870    -1.4450    -0.9370 hc         1 H9A       0.037700
     18 H9          -0.3210    -2.3710    -0.3000 hc         1 H9A       0.037700
     19 H10         -0.4200    -2.3930    -2.8000 hc         1 H9A       0.024700
     20 H11         -0.2170    -0.6360    -2.7930 hc         1 H9A       0.024700
     21 H12          1.0760    -1.6780    -2.1820 hc         1 H9A       0.024700
@<TRIPOS>BOND
     1     7     8 1
     2     7     1 1
     3     2     1 1
     4     1     3 1
     5     3     4 1
     6     5     4 1
     7     4     6 1
     8     1     9 1
     9     4    10 1
    10     5    11 1
    11     5    12 1
    12     5    13 1
    13     6    14 1
    14     6    15 1
    15     6    16 1
    16     7    17 1
    17     7    18 1
    18     8    19 1
    19     8    20 1
    20     8    21 1
@<TRIPOS>SUBSTRUCTURE
     1 H9A         1 TEMP              0 ****  ****    0 ROOT
