@<TRIPOS>MOLECULE
H9K
   42    46     1     0     0
SMALL
bcc


@<TRIPOS>ATOM
      1 O2          0.0150    0.0630   -0.3060 oh        1 H9K     -0.497100
      2 C19         1.3850    0.0530   -0.1780 ca        1 H9K      0.128100
      3 C18         2.0150    0.0600    1.0850 ca        1 H9K     -0.202000
      4 C20         2.1200    0.0360   -1.3710 ca        1 H9K     -0.165000
      5 C21         3.5180    0.0250   -1.3270 ca        1 H9K     -0.062000
      6 C22         4.1520    0.0320   -0.0960 ca        1 H9K     -0.146500
      7 C14         5.5550    0.0230    0.2680 cc        1 H9K      0.345800
      8 N2          6.7830    0.0150   -0.2920 nd        1 H9K     -0.462800
      9 N1          7.6400    0.0380    0.7330 na        1 H9K     -0.035600
     10 C17         3.3950    0.0490    1.1210 ca        1 H9K     -0.043300
     11 C16         4.2940    0.0530    2.3390 c3        1 H9K      0.050200
     12 C15         5.6520    0.0350    1.7450 cc        1 H9K     -0.256600
     13 C13         7.0190    0.0400    2.0090 cd        1 H9K     -0.015300
     14 C10         7.7420    0.0480    3.2630 ca        1 H9K     -0.018000
     15 C9          7.1010   -0.4160    4.4230 ca        1 H9K     -0.115000
     16 C8          7.7670   -0.4200    5.6440 ca        1 H9K     -0.120000
     17 C11         9.0610    0.5140    3.3550 ca        1 H9K     -0.115000
     18 C12         9.7250    0.5100    4.5780 ca        1 H9K     -0.120000
     19 C7          9.0880    0.0410    5.7360 cp        1 H9K     -0.020000
     20 C4          9.7890    0.0350    7.0180 cp        1 H9K     -0.080000
     21 C3         10.6160    1.1110    7.3800 ca        1 H9K     -0.080000
     22 C2         11.2870    1.1170    8.5970 ca        1 H9K     -0.186000
     23 C5          9.6440   -1.0440    7.9010 ca        1 H9K     -0.080000
     24 C6         10.3100   -1.0570    9.1220 ca        1 H9K     -0.186000
     25 C1         11.1310    0.0250    9.4680 ca        1 H9K      0.130100
     26 O1         11.8210    0.0860   10.6560 oh        1 H9K     -0.495100
     27 H14        -0.3680    0.0780    0.5830 ho        1 H9K      0.419000
     28 H13         1.4180    0.0740    2.0060 ha        1 H9K      0.136000
     29 H15         1.5880    0.0320   -2.3330 ha        1 H9K      0.152000
     30 H16         4.1000    0.0120   -2.2600 ha        1 H9K      0.149000
     31 H1          8.6160   -0.0310    0.5670 hn        1 H9K      0.319700
     32 H12         4.1220    0.9700    2.9590 hc        1 H9K      0.070200
     33 H11         4.1040   -0.8480    2.9760 hc        1 H9K      0.070200
     34 H8          6.0620   -0.7760    4.3590 ha        1 H9K      0.135000
     35 H7          7.2510   -0.7810    6.5460 ha        1 H9K      0.138500
     36 H9          9.5820    0.8990    2.4670 ha        1 H9K      0.135000
     37 H10        10.7620    0.8740    4.6360 ha        1 H9K      0.138500
     38 H4         10.7290    1.9650    6.6950 ha        1 H9K      0.138000
     39 H3         11.9320    1.9570    8.8890 ha        1 H9K      0.144500
     40 H5          9.0020   -1.8940    7.6230 ha        1 H9K      0.138000
     41 H6         10.1960   -1.9080    9.8080 ha        1 H9K      0.144500
     42 H2         11.6270   -0.7200   11.1560 ho        1 H9K      0.421000
@<TRIPOS>BOND
     1    1    2 1   
     2    1   27 1   
     3    2    3 ar  
     4    2    4 ar  
     5    3   10 ar  
     6    3   28 1   
     7    4    5 ar  
     8    4   29 1   
     9    5    6 ar  
    10    5   30 1   
    11    6    7 1   
    12    6   10 ar  
    13    7    8 2   
    14    7   12 1   
    15    8    9 1   
    16    9   13 1   
    17    9   31 1   
    18   10   11 1   
    19   11   12 1   
    20   11   32 1   
    21   11   33 1   
    22   12   13 2   
    23   13   14 1   
    24   14   15 ar  
    25   14   17 ar  
    26   15   16 ar  
    27   15   34 1   
    28   16   19 ar  
    29   16   35 1   
    30   17   18 ar  
    31   17   36 1   
    32   18   19 ar  
    33   18   37 1   
    34   19   20 1   
    35   20   21 ar  
    36   20   23 ar  
    37   21   22 ar  
    38   21   38 1   
    39   22   25 ar  
    40   22   39 1   
    41   23   24 ar  
    42   23   40 1   
    43   24   25 ar  
    44   24   41 1   
    45   25   26 1   
    46   26   42 1   
@<TRIPOS>SUBSTRUCTURE
     1 H9K         1 TEMP              0 ****  ****    0 ROOT
