@<TRIPOS>MOLECULE
molecule
   42    46     1     0     0
SMALL
bcc


@<TRIPOS>ATOM
      1 O2           0.0000     0.0000     0.0000 oh         1 H9K      -0.520100
      2 C19          1.3580     0.0000     0.0000 ca         1 H9K       0.114100
      3 C18          2.0530     0.0000     1.2020 ca         1 H9K      -0.144000
      4 C20          2.0530    -0.0080    -1.2020 ca         1 H9K      -0.157000
      5 C21          3.4310    -0.0070    -1.2060 ca         1 H9K      -0.083000
      6 C22          4.1330    -0.0020     0.0000 ca         1 H9K      -0.120500
      7 C14          5.5920    -0.0010     0.2800 cc         1 H9K       0.382800
      8 N2           6.7740    -0.0050    -0.3080 nd         1 H9K      -0.481800
      9 N1           7.7630     0.0010     0.6840 na         1 H9K      -0.035600
     10 C17          3.4310     0.0000     1.2030 ca         1 H9K      -0.065300
     11 C16          4.4400     0.0070     2.3250 c3         1 H9K       0.055200
     12 C15          5.7980     0.0070     1.6680 cc         1 H9K      -0.302600
     13 C13          7.1410     0.0070     1.8970 cd         1 H9K      -0.002300
     14 C10          7.8030     0.0150     3.2200 ca         1 H9K      -0.032000
     15 C9           7.3550    -0.8400     4.2300 ca         1 H9K      -0.107500
     16 C8           7.9720    -0.8320     5.4610 ca         1 H9K      -0.121500
     17 C11          8.8800     0.8710     3.4570 ca         1 H9K      -0.107500
     18 C12          9.4960     0.8770     4.6890 ca         1 H9K      -0.121500
     19 C7           9.0440     0.0290     5.7000 cp         1 H9K      -0.023000
     20 C4           9.7060     0.0360     7.0260 cp         1 H9K      -0.049000
     21 C3          10.7770     0.8960     7.2660 ca         1 H9K      -0.104500
     22 C2          11.3920     0.9020     8.5010 ca         1 H9K      -0.151000
     23 C5           9.2560    -0.8110     8.0370 ca         1 H9K      -0.104500
     24 C6           9.8740    -0.8000     9.2690 ca         1 H9K      -0.151000
     25 C1          10.9440     0.0530     9.5040 ca         1 H9K       0.109100
     26 O1          11.5520     0.0600    10.7190 oh         1 H9K      -0.522100
     27 H14         -0.3140     0.8880     0.0410 ho         1 H9K       0.420000
     28 H13          1.5110    -0.0110     2.1410 ha         1 H9K       0.142000
     29 H15          1.5100    -0.0160    -2.1400 ha         1 H9K       0.144000
     30 H16          3.9690    -0.0140    -2.1460 ha         1 H9K       0.144000
     31 H1           8.7510    -0.0380     0.5290 hn         1 H9K       0.336700
     32 H12          4.3190     0.8990     2.9280 hc         1 H9K       0.064700
     33 H11          4.3230    -0.8810     2.9350 hc         1 H9K       0.064700
     34 H8           6.5230    -1.5080     4.0450 ha         1 H9K       0.138000
     35 H7           7.6230    -1.4930     6.2450 ha         1 H9K       0.137500
     36 H9           9.2310     1.5300     2.6720 ha         1 H9K       0.138000
     37 H10         10.3290     1.5440     4.8740 ha         1 H9K       0.137500
     38 H4          11.1270     1.5580     6.4840 ha         1 H9K       0.136500
     39 H3          12.2260     1.5680     8.6870 ha         1 H9K       0.143000
     40 H5           8.4210    -1.4770     7.8550 ha         1 H9K       0.136500
     41 H6           9.5260    -1.4600    10.0550 ha         1 H9K       0.143000
     42 H2          12.2560    -0.5670    10.7220 ho         1 H9K       0.420000
@<TRIPOS>BOND
     1     8     9 1
     2     8     7 2
     3     5     4 ar
     4     5     6 ar
     5     9    13 1
     6     7     6 1
     7     7    12 1
     8     4     2 ar
     9     6    10 ar
    10    13    12 2
    11    13    14 1
    12    12    11 1
    13     2     1 1
    14     2     3 ar
    15    10    11 1
    16    10     3 ar
    17    15    14 ar
    18    15    16 ar
    19    14    17 ar
    20    16    19 ar
    21    17    18 ar
    22    19    18 ar
    23    19    20 1
    24    20    21 ar
    25    20    23 ar
    26    21    22 ar
    27    23    24 ar
    28    22    25 ar
    29    24    25 ar
    30    25    26 1
    31     1    27 1
    32     3    28 1
    33     4    29 1
    34     5    30 1
    35     9    31 1
    36    11    32 1
    37    11    33 1
    38    15    34 1
    39    16    35 1
    40    17    36 1
    41    18    37 1
    42    21    38 1
    43    22    39 1
    44    23    40 1
    45    24    41 1
    46    26    42 1
@<TRIPOS>SUBSTRUCTURE
     1 H9K         1 TEMP              0 ****  ****    0 ROOT
