@<TRIPOS>MOLECULE
molecule
   35    37     1     0     0
SMALL
bcc


@<TRIPOS>ATOM
      1 C1           0.0000     0.0000     0.0000 ca         1 H9V      -0.119000
      2 N2          -5.2110     1.7350     0.5930 n1         1 H9V      -0.344800
      3 C3          -0.0110     0.0060     2.3990 ca         1 H9V      -0.119000
      4 C4           1.3690    -0.0000     2.4110 ca         1 H9V      -0.102500
      5 C5           2.0740     0.0000     1.2090 cp         1 H9V      -0.041000
      6 C6           1.3800     0.0000     0.0000 ca         1 H9V      -0.102500
      7 C8           4.2550    -1.1030     0.7060 ca         1 H9V       0.180900
      8 C9           5.6370    -1.1030     0.7160 ca         1 H9V      -0.181000
      9 C10          6.3290    -0.0200     1.2290 ca         1 H9V       0.077400
     10 C11          5.6430     1.0690     1.7360 ca         1 H9V      -0.181000
     11 C12          4.2610     1.0820     1.7320 ca         1 H9V       0.180900
     12 C13         -2.2010     0.0130     1.1900 cy         1 H9V      -0.031400
     13 C14         -2.8230    -1.2080     0.4860 cy         1 H9V       0.086500
     14 C15         -2.8150     0.8550     0.0570 cy         1 H9V       0.179600
     15 C16         -1.9020    -2.4270     0.4380 c3         1 H9V       0.179900
     16 C17         -4.1710     1.3460     0.3510 c1         1 H9V       0.190700
     17 C2          -0.6950     0.0060     1.1960 ca         1 H9V      -0.075300
     18 C7           3.5570    -0.0070     1.2150 cp         1 H9V      -0.120000
     19 F2           3.5810    -2.1580     0.1990 f          1 H9V      -0.120900
     20 F3          -2.5530    -3.4790    -0.2170 f          1 H9V      -0.249300
     21 N1          -2.7920    -0.3880    -0.7460 n6         1 H9V      -0.737200
     22 Cl1          8.0650    -0.0280     1.2370 cl         1 H9V      -0.081400
     23 H1          -0.5400    -0.0000    -0.9390 ha         1 H9V       0.150000
     24 H2          -0.5590     0.0080     3.3330 ha         1 H9V       0.150000
     25 H3           1.9030    -0.0000     3.3540 ha         1 H9V       0.141000
     26 H4           1.9230    -0.0020    -0.9380 ha         1 H9V       0.141000
     27 H5           6.1800    -1.9530     0.3200 ha         1 H9V       0.165000
     28 H6           6.1900     1.9140     2.1370 ha         1 H9V       0.165000
     29 H7          -2.6520     0.2150     2.1540 hc         1 H9V       0.074700
     30 H8          -3.8310    -1.4190     0.8240 h1         1 H9V       0.074700
     31 H9          -2.1360     1.6110    -0.3200 h1         1 H9V       0.115700
     32 H10         -1.6520    -2.7310     1.4480 h1         1 H9V       0.061700
     33 H11         -0.9950    -2.1740    -0.0980 h1         1 H9V       0.061700
     34 H12         -3.6600    -0.4860    -1.2340 hn         1 H9V       0.349800
     35 F1           3.5920     2.1450     2.2280 f          1 H9V      -0.120900
@<TRIPOS>BOND
     1    19     7 1
     2     8     7 ar
     3     8     9 ar
     4    22     9 1
     5     7    18 ar
     6     2    16 3
     7     9    10 ar
     8     4     3 ar
     9     4     5 ar
    10    16    14 1
    11     3    17 ar
    12    18     5 1
    13    18    11 ar
    14    10    11 ar
    15     5     6 ar
    16    14    12 1
    17    14    21 1
    18    11    35 1
    19    17    12 1
    20    17     1 ar
    21    12    13 1
    22     6     1 ar
    23    21    13 1
    24    13    15 1
    25    20    15 1
    26     1    23 1
    27     3    24 1
    28     4    25 1
    29     6    26 1
    30     8    27 1
    31    10    28 1
    32    12    29 1
    33    13    30 1
    34    14    31 1
    35    15    32 1
    36    15    33 1
    37    21    34 1
@<TRIPOS>SUBSTRUCTURE
     1 H9V         1 TEMP              0 ****  ****    0 ROOT
