@<TRIPOS>MOLECULE
H9Z
   66    71     1     0     0
SMALL
bcc


@<TRIPOS>ATOM
      1 CBJ          0.0000     0.0000     0.0000 c3         1 H9Z      -0.040400
      2 CBI          1.5310     0.0000     0.0000 c3         1 H9Z      -0.029400
      3 CBH          2.0350     0.0000     1.4450 c3         1 H9Z       0.151800
      4 NBG          1.5280     1.1890     2.1420 n3         1 H9Z      -0.547600
      5 CBK          2.1030     1.2960     3.4890 c3         1 H9Z       0.188100
      6 CBF          0.0600     1.1870     2.1950 c3         1 H9Z       0.133800
      7 CBE         -0.5030     1.2220     0.7730 c3         1 H9Z       0.024700
      8 NBD         -0.0560     2.4440     0.0990 ns         1 H9Z      -0.170900
      9 CBB         -0.7460     3.5920     0.2580 c          1 H9Z       0.592700
     10 OBC         -1.7390     3.6120     0.9590 o          1 H9Z      -0.648100
     11 CAW         -0.2960     4.8240    -0.4210 ca         1 H9Z      -0.117600
     12 CAX          0.8670     4.8340    -1.1990 ca         1 H9Z      -0.199300
     13 CAY          1.2490     6.0050    -1.8210 ca         1 H9Z       0.403200
     14 NAZ          0.5370     7.1090    -1.6920 nb         1 H9Z      -0.560000
     15 CBA         -0.5630     7.1530    -0.9720 ca         1 H9Z       0.394200
     16 CAV         -1.0260     6.0200    -0.3080 ca         1 H9Z      -0.063700
     17 NAQ         -2.1910     6.0690     0.4470 nu         1 H9Z      -0.230000
     18 CAA         -2.1200     6.2070     1.8330 ca         1 H9Z       0.093600
     19 CAB         -3.2890     6.1390     2.5950 ca         1 H9Z      -0.134000
     20 CAF         -0.8950     6.4030     2.4360 ca         1 H9Z      -0.260300
     21 CAE         -0.8130     6.5430     3.8300 ca         1 H9Z       0.320300
     22 NAM          0.3670     6.7340     4.4330 nb         1 H9Z      -0.561000
     23 CAN          0.4160     6.8630     5.7410 ca         1 H9Z       0.299900
     24 CAO         -0.7480     6.8020     6.5060 ca         1 H9Z       0.248900
     25 NAP         -1.9180     6.6140     5.9350 nb         1 H9Z      -0.513000
     26 CAD         -1.9940     6.4810     4.6090 ca         1 H9Z       0.224300
     27 CAC         -3.2420     6.2730     3.9700 cp         1 H9Z      -0.020300
     28 CAG         -4.4860     6.2000     4.7680 cp         1 H9Z      -0.016000
     29 CAH         -5.5860     6.9710     4.4070 ca         1 H9Z      -0.098000
     30 CAI         -6.7520     6.9000     5.1570 ca         1 H9Z      -0.211200
     31 NAT         -7.9780     7.5210     5.0610 na         1 H9Z       0.386600
     32 CAU         -8.3530     8.4920     4.0310 c3         1 H9Z      -0.004400
     33 CAS         -8.7960     7.0920     6.0710 cc         1 H9Z      -0.255100
     34 CAR         -8.1470     6.2020     6.8400 cd         1 H9Z      -0.165200
     35 CAJ         -6.8040     6.0480     6.2760 ca         1 H9Z      -0.098800
     36 CAK         -5.6890     5.2800     6.6270 ca         1 H9Z      -0.050000
     37 CAL         -4.5510     5.3520     5.8800 ca         1 H9Z      -0.094000
     38 H1          -0.3610     0.0450    -1.0200 hc         1 H9Z       0.023200
     39 H2          -0.3610    -0.9030     0.4780 hc         1 H9Z       0.023200
     40 H3           1.8920     0.8860    -0.5080 hc         1 H9Z       0.018200
     41 H4           1.8920    -0.8860    -0.5080 hc         1 H9Z       0.018200
     42 H5           1.6810    -0.8910     1.9490 h1         1 H9Z       0.010700
     43 H6           3.1180     0.0160     1.4480 h1         1 H9Z       0.010700
     44 H8           1.8220     0.4270     4.0720 h1         1 H9Z       0.002700
     45 H9           3.1820     1.3490     3.4180 h1         1 H9Z       0.002700
     46 H10          1.7280     2.1910     3.9720 h1         1 H9Z       0.002700
     47 H11         -0.2810     2.0590     2.7390 h1         1 H9Z       0.026200
     48 H12         -0.2800     0.2870     2.6940 h1         1 H9Z       0.026200
     49 H13         -1.5850     1.2010     0.8140 h1         1 H9Z       0.056700
     50 H14          0.7330     2.4160    -0.5160 hn         1 H9Z       0.186500
     51 H15          1.4590     3.9340    -1.3120 ha         1 H9Z       0.116000
     52 H16          2.1480     6.0190    -2.4250 h4         1 H9Z      -0.016900
     53 H17         -1.1160     8.0820    -0.8940 h4         1 H9Z      -0.010900
     54 H18         -3.0830     6.0320    -0.0070 hn         1 H9Z       0.291800
     55 H19         -4.2410     5.9780     2.1040 ha         1 H9Z       0.116000
     56 H20         -0.0030     6.5030     1.8280 ha         1 H9Z       0.130000
     57 H21          1.3700     7.0180     6.2290 h4         1 H9Z      -0.017900
     58 H22         -0.6890     6.9100     7.5820 h4         1 H9Z      -0.014900
     59 H23         -5.4990     7.6980     3.6090 ha         1 H9Z       0.103000
     60 H24         -8.3290     8.0140     3.0590 h1         1 H9Z       0.015700
     61 H25         -9.3520     8.8610     4.2280 h1         1 H9Z       0.015700
     62 H26         -7.6530     9.3190     4.0440 h1         1 H9Z       0.015700
     63 H27         -9.8160     7.4210     6.2280 h4         1 H9Z       0.137000
     64 H28         -8.5420     5.6940     7.7120 ha         1 H9Z       0.128000
     65 H29         -5.7330     4.6210     7.4860 ha         1 H9Z       0.100000
     66 H30         -3.6950     4.7420     6.1430 ha         1 H9Z       0.114000
@<TRIPOS>BOND
     1     1     2 1   
     2     1     7 1   
     3     1    38 1   
     4     1    39 1   
     5     2     3 1   
     6     2    40 1   
     7     2    41 1   
     8     3     4 1   
     9     3    42 1   
    10     3    43 1   
    11     4     5 1   
    12     4     6 1   
    13     5    44 1   
    14     5    45 1   
    15     5    46 1   
    16     6     7 1   
    17     6    47 1   
    18     6    48 1   
    19     7     8 1   
    20     7    49 1   
    21     8     9 1   
    22     8    50 1   
    23     9    10 2   
    24     9    11 1   
    25    11    12 ar  
    26    11    16 ar  
    27    12    13 ar  
    28    12    51 1   
    29    13    14 ar  
    30    13    52 1   
    31    14    15 ar  
    32    15    16 ar  
    33    15    53 1   
    34    16    17 1   
    35    17    18 1   
    36    17    54 1   
    37    18    19 ar  
    38    18    20 ar  
    39    19    27 ar  
    40    19    55 1   
    41    20    21 ar  
    42    20    56 1   
    43    21    22 ar  
    44    21    26 ar  
    45    22    23 ar  
    46    23    24 ar  
    47    23    57 1   
    48    24    25 ar  
    49    24    58 1   
    50    25    26 ar  
    51    26    27 ar  
    52    27    28 1   
    53    28    29 ar  
    54    28    37 ar  
    55    29    30 ar  
    56    29    59 1   
    57    30    31 1   
    58    30    35 ar  
    59    31    32 1   
    60    31    33 1   
    61    32    60 1   
    62    32    61 1   
    63    32    62 1   
    64    33    34 2   
    65    33    63 1   
    66    34    35 1   
    67    34    64 1   
    68    35    36 ar  
    69    36    37 ar  
    70    36    65 1   
    71    37    66 1   
@<TRIPOS>SUBSTRUCTURE
     1 H9Z         1 TEMP              0 ****  ****    0 ROOT
