@<TRIPOS>MOLECULE
HA0
   61    63     1     0     0
SMALL
bcc


@<TRIPOS>ATOM
      1 C           1.1730   -0.5610    0.0970 c         1 HA0      0.643100
      2 N           1.3730    0.0390    1.3440 n         1 HA0     -0.493900
      3 O           1.9780   -1.3760   -0.3900 o         1 HA0     -0.594100
      4 C1          3.1940    1.7930    1.0890 c         1 HA0      0.905600
      5 OXT         4.3500    2.1850    1.3800 o         1 HA0     -0.831800
      6 N3          4.2700   -2.8050    2.9010 nc        1 HA0     -0.705000
      7 C4         -1.3470   -0.6800    0.2710 c3        1 HA0     -0.072900
      8 C5         -0.3030   -1.1760   -1.8540 c3        1 HA0     -0.072900
      9 O6          2.7490   -1.3920    3.8320 os        1 HA0     -0.369800
     10 CA          0.0870    1.6550   -2.3910 c3        1 HA0     -0.145700
     11 CB          3.7740   -3.3820    4.0710 cc        1 HA0      0.258900
     12 CD         -1.1380    3.8090   -4.4690 c3        1 HA0     -0.089100
     13 CH          3.7880   -0.5650    1.7460 c3        1 HA0     -0.118700
     14 C11         2.6830    0.4860    1.7930 c3        1 HA0     -0.051300
     15 C17         2.0980   -3.6980    6.6840 ca        1 HA0     -0.117500
     16 C20         0.3560   -1.6070    7.2980 ca        1 HA0     -0.133000
     17 C21         0.4370   -2.7170    8.1400 ca        1 HA0     -0.141000
     18 CA1        -0.1640   -0.2620   -0.6270 c3        1 HA0     -0.125000
     19 CB1         0.1850    3.1810   -2.4250 c3        1 HA0     -0.086400
     20 CB2         1.3520    1.0710   -2.9740 c         1 HA0      0.644100
     21 CD2         2.0220   -2.5840    5.8330 ca        1 HA0     -0.090500
     22 CE3         1.1410   -1.5360    6.1510 ca        1 HA0     -0.117500
     23 CG1        -1.6770   -2.1290   -0.0690 c3        1 HA0     -0.078400
     24 OG1         1.3970    0.4570   -4.0500 o         1 HA0     -0.558000
     25 CG2        -0.9600   -2.4610   -1.3700 c3        1 HA0     -0.078400
     26 OG2         2.5580    1.2490   -2.3920 oh        1 HA0     -0.583100
     27 CG3         2.8400   -2.5280    4.6540 cd        1 HA0      0.159900
     28 CH2        -0.2230    1.2280   -0.9630 c3        1 HA0     -0.097400
     29 O1          2.4010    2.4110    0.3140 o         1 HA0     -0.831800
     30 CZ1         3.6470   -1.6230    2.7750 cd        1 HA0      0.558700
     31 CZ3         1.3080   -3.7600    7.8300 ca        1 HA0     -0.133000
     32 HN          2.4710    1.6810   -1.5150 ho        1 HA0      0.487000
     33 H4         -1.1250   -0.5680    1.3580 hc        1 HA0      0.053700
     34 H4A        -2.2350   -0.0340    0.0470 hc        1 HA0      0.053700
     35 H5         -0.9510   -0.6860   -2.6220 hc        1 HA0      0.053700
     36 H5A         0.6960   -1.3750   -2.3210 hc        1 HA0      0.053700
     37 HA         -0.7560    1.3320   -3.0660 hc        1 HA0      0.066700
     38 HB          4.1170   -4.3600    4.4060 h4        1 HA0      0.035100
     39 HD         -1.8180    4.4650   -3.8720 hc        1 HA0      0.026367
     40 HDA        -1.6000    2.7950   -4.5360 hc        1 HA0      0.026367
     41 HDB        -1.0620    4.2290   -5.5010 hc        1 HA0      0.026367
     42 HG          0.6740    4.7630   -3.8030 hc        1 HA0      0.048200
     43 HGA         0.9010    3.0960   -4.4660 hc        1 HA0      0.048200
     44 HH          2.5310    0.7790    2.8780 h1        1 HA0      0.058700
     45 HHA         4.7640   -0.0260    1.9280 hc        1 HA0      0.116700
     46 H11         3.8430   -1.0500    0.7320 hc        1 HA0      0.116700
     47 HB1         1.1120    3.4900   -1.8650 hc        1 HA0      0.062700
     48 HB1A       -0.6930    3.6120   -1.8770 hc        1 HA0      0.062700
     49 HE3         1.0800   -0.6630    5.4820 ha        1 HA0      0.143500
     50 HG1        -1.3340   -2.8100    0.7510 hc        1 HA0      0.037450
     51 HG1A       -2.7830   -2.2630   -0.1730 hc        1 HA0      0.037450
     52 HG2        -0.1800   -3.2440   -1.1940 hc        1 HA0      0.037450
     53 HG2A       -1.6720   -2.8560   -2.1360 hc        1 HA0      0.037450
     54 HH2        -1.2600    1.6030   -0.7440 hc        1 HA0      0.074200
     55 HH2A        0.4750    1.8080   -0.2900 hc        1 HA0      0.074200
     56 HZ3         1.3740   -4.6360    8.4910 ha        1 HA0      0.125500
     57 CG          0.2260    3.7340   -3.8330 c3        1 HA0     -0.087400
     58 H17         2.7850   -4.5220    6.4410 ha        1 HA0      0.143500
     59 H20        -0.3310   -0.7830    7.5400 ha        1 HA0      0.125500
     60 H2          0.7040    0.7640    1.5250 hn        1 HA0      0.278500
     61 H21        -0.1850   -2.7690    9.0450 ha        1 HA0      0.122000
@<TRIPOS>BOND
     1    1    2 1   
     2    1    3 2   
     3    1   18 1   
     4    2   14 1   
     5    2   60 1   
     6    4    5 1   
     7    4   14 1   
     8    4   29 1   
     9    6   11 1   
    10    6   30 2   
    11    7   18 1   
    12    7   23 1   
    13    7   33 1   
    14    7   34 1   
    15    8   18 1   
    16    8   25 1   
    17    8   35 1   
    18    8   36 1   
    19    9   27 1   
    20    9   30 1   
    21   10   19 1   
    22   10   20 1   
    23   10   28 1   
    24   10   37 1   
    25   11   27 2   
    26   11   38 1   
    27   12   39 1   
    28   12   40 1   
    29   12   41 1   
    30   12   57 1   
    31   13   14 1   
    32   13   30 1   
    33   13   45 1   
    34   13   46 1   
    35   14   44 1   
    36   15   21 ar  
    37   15   31 ar  
    38   15   58 1   
    39   16   17 ar  
    40   16   22 ar  
    41   16   59 1   
    42   17   31 ar  
    43   17   61 1   
    44   18   28 1   
    45   19   47 1   
    46   19   48 1   
    47   19   57 1   
    48   20   24 2   
    49   20   26 1   
    50   21   22 ar  
    51   21   27 1   
    52   22   49 1   
    53   23   25 1   
    54   23   50 1   
    55   23   51 1   
    56   25   52 1   
    57   25   53 1   
    58   26   32 1   
    59   28   54 1   
    60   28   55 1   
    61   31   56 1   
    62   42   57 1   
    63   43   57 1   
@<TRIPOS>SUBSTRUCTURE
     1 HA0         1 TEMP              0 ****  ****    0 ROOT
