@<TRIPOS>MOLECULE
HA1
   34    35     1     0     0
SMALL
bcc


@<TRIPOS>ATOM
      1 N9          0.1460    0.2110   -0.0900 na        1 HA1     -0.166900
      2 C8          1.5260    0.4660    0.0660 cc        1 HA1      0.389400
      3 N7          1.9260    0.4970    1.3550 nd        1 HA1     -0.616000
      4 C5          0.7720    0.2310    2.0910 cd        1 HA1      0.169800
      5 C6          0.5640    0.1060    3.5180 c         1 HA1      0.651000
      6 O6          1.3920    0.2510    4.4360 o         1 HA1     -0.642500
      7 N1         -0.7630   -0.2300    3.8840 n         1 HA1     -0.504400
      8 C2         -1.8030   -0.3730    2.9380 cd        1 HA1      0.638800
      9 N2         -3.1140   -0.6070    3.4600 nh        1 HA1     -0.871800
     10 N3         -1.6430   -0.2500    1.6070 nc        1 HA1     -0.617100
     11 C4         -0.3520    0.0430    1.2010 cc        1 HA1      0.099800
     12 C10        -0.5780    0.0450   -1.3280 c3        1 HA1      0.032300
     13 C11        -1.0210   -1.3830   -1.6420 c3        1 HA1     -0.094400
     14 C12        -1.8180   -1.3940   -2.9310 c3        1 HA1     -0.068400
     15 C13        -2.4480   -2.7440   -3.1680 c3        1 HA1     -0.156400
     16 C14        -3.3510   -2.8240   -4.3950 c3        1 HA1      0.260400
     17 F15        -4.3750   -1.9090   -4.3990 f         1 HA1     -0.290300
     18 F16        -2.7090   -2.5690   -5.5820 f         1 HA1     -0.290300
     19 P          -3.9820   -4.5690   -4.3070 p5        1 HA1      1.183700
     20 O2P        -2.6840   -5.3380   -4.3480 o         1 HA1     -0.929167
     21 O1P        -4.8930   -4.7370   -5.4880 o         1 HA1     -0.929167
     22 O3P        -4.6460   -4.5570   -2.9500 o         1 HA1     -0.929167
     23 H8          2.1750    0.6180   -0.8020 h5        1 HA1      0.062100
     24 HN1        -0.9650   -0.3090    4.8550 hn        1 HA1      0.326500
     25 HN21       -3.1420   -1.4130    4.0510 hn        1 HA1      0.404300
     26 HN22       -3.8030   -0.6670    2.7330 hn        1 HA1      0.404300
     27 H101       -1.4920    0.7050   -1.2750 h1        1 HA1      0.059700
     28 H102        0.0890    0.4210   -2.1560 h1        1 HA1      0.059700
     29 H111       -0.1310   -2.0560   -1.7410 hc        1 HA1      0.057200
     30 H112       -1.6570   -1.7820   -0.8090 hc        1 HA1      0.057200
     31 H121       -2.6290   -0.6180   -2.8850 hc        1 HA1      0.024700
     32 H122       -1.1520   -1.1310   -3.7940 hc        1 HA1      0.024700
     33 H131       -3.1030   -3.0520   -2.3060 hc        1 HA1      0.100200
     34 H132       -1.6780   -3.5490   -3.3130 hc        1 HA1      0.100200
@<TRIPOS>BOND
     1    1    2 1   
     2    1   11 1   
     3    1   12 1   
     4    2    3 2   
     5    2   23 1   
     6    3    4 1   
     7    4    5 1   
     8    4   11 2   
     9    5    6 2   
    10    5    7 1   
    11    7    8 1   
    12    7   24 1   
    13    8    9 1   
    14    8   10 2   
    15    9   25 1   
    16    9   26 1   
    17   10   11 1   
    18   12   13 1   
    19   12   27 1   
    20   12   28 1   
    21   13   14 1   
    22   13   29 1   
    23   13   30 1   
    24   14   15 1   
    25   14   31 1   
    26   14   32 1   
    27   15   16 1   
    28   15   33 1   
    29   15   34 1   
    30   16   17 1   
    31   16   18 1   
    32   16   19 1   
    33   19   20 1   
    34   19   21 1   
    35   19   22 1   
@<TRIPOS>SUBSTRUCTURE
     1 HA1         1 TEMP              0 ****  ****    0 ROOT
