@<TRIPOS>MOLECULE
HA2
   57    58     1     0     0
SMALL
bcc


@<TRIPOS>ATOM
      1 C3           0.0000     0.0000     0.0000 ca         1 HA2      -0.093500
      2 C2           1.4070     0.0000     0.0000 ca         1 HA2      -0.098000
      3 C1           2.1400     0.0000     1.1950 ca         1 HA2      -0.096000
      4 C6           1.4520    -0.0000     2.4280 ca         1 HA2      -0.098000
      5 C5           0.0420    -0.0120     2.4350 ca         1 HA2      -0.093500
      6 C4          -0.6890    -0.0120     1.2360 ca         1 HA2      -0.143300
      7 C7          -2.2100    -0.0200     1.2890 c3         1 HA2       0.293700
      8 O1          -2.7780     0.0790    -0.0160 os         1 HA2      -0.340900
      9 C8          -3.1840     1.3120    -0.6190 ca         1 HA2       0.161100
     10 C13         -4.3850     1.3800    -1.3550 ca         1 HA2      -0.128500
     11 C12         -4.7790     2.5960    -1.9540 ca         1 HA2      -0.069000
     12 C9          -2.3680     2.4670    -0.4900 ca         1 HA2      -0.128500
     13 C10         -2.7680     3.6770    -1.0840 ca         1 HA2      -0.069000
     14 C11         -3.9720     3.7410    -1.8090 ca         1 HA2      -0.204300
     15 C14         -4.4020     5.0910    -2.4020 c3         1 HA2       0.033900
     16 C15         -4.0670     5.1840    -3.9200 c3         1 HA2      -0.089500
     17 N2          -2.7040     4.7080    -4.1650 nz         1 HA2       0.056400
     18 C16         -4.1850     6.6440    -4.4110 c3         1 HA2       0.036000
     19 N3          -3.6580     7.6040    -3.4050 n          1 HA2      -0.050300
     20 O2          -2.3850     7.4980    -2.9810 oh         1 HA2      -0.466100
     21 C17         -4.4660     8.5640    -2.9040 c          1 HA2       0.578100
     22 O3          -5.6530     8.6460    -3.2590 o          1 HA2      -0.572100
     23 C18         -3.9060     9.5280    -1.8750 c3         1 HA2      -0.077400
     24 C19         -4.9920    10.4540    -1.3400 c3         1 HA2      -0.040400
     25 C20         -5.2390    10.1680     0.1370 c3         1 HA2      -0.022400
     26 C21         -6.6840    10.5010     0.5060 c3         1 HA2      -0.165400
     27 C22         -7.3590     9.3120     1.1670 c          1 HA2       1.015600
     28 O5          -7.1290     8.1700     0.6910 o          1 HA2      -0.901800
     29 O4          -8.0920     9.5630     2.1280 o          1 HA2      -0.901800
     30 H3          -0.5490    -0.0000    -0.9340 ha         1 HA2       0.109500
     31 H2           1.9360     0.0050    -0.9450 ha         1 HA2       0.103500
     32 H1           3.2230     0.0040     1.1730 ha         1 HA2       0.107000
     33 H6           2.0030    -0.0000     3.3610 ha         1 HA2       0.103500
     34 H5          -0.4860    -0.0170     3.3810 ha         1 HA2       0.109500
     35 H7C1        -2.5430    -0.9420     1.7510 h1         1 HA2       0.025200
     36 H7C2        -2.5480     0.8180     1.8870 h1         1 HA2       0.025200
     37 H13         -5.0040     0.4980    -1.4650 ha         1 HA2       0.131000
     38 H9          -1.4410     2.4170     0.0680 ha         1 HA2       0.131000
     39 H12         -5.7040     2.6500    -2.5160 ha         1 HA2       0.113000
     40 H10         -2.1500     4.5610    -0.9820 ha         1 HA2       0.113000
     41 H141        -3.8880     5.8870    -1.8770 hc         1 HA2       0.079200
     42 H142        -5.4710     5.2110    -2.2680 hc         1 HA2       0.079200
     43 H15         -4.7630     4.5660    -4.4750 hx         1 HA2       0.084700
     44 H2N1        -2.6870     3.7080    -4.1180 hn         1 HA2       0.225133
     45 H2N2        -2.0890     5.0850    -3.4720 hn         1 HA2       0.225133
     46 H161        -5.2270     6.8690    -4.6020 h1         1 HA2       0.058700
     47 H162        -3.6250     6.7540    -5.3320 h1         1 HA2       0.058700
     48 HA          -1.8330     8.0610    -3.4990 ho         1 HA2       0.399000
     49 H181        -3.4830     8.9640    -1.0530 hc         1 HA2       0.028700
     50 H182        -3.1260    10.1240    -2.3350 hc         1 HA2       0.028700
     51 H191        -5.9080    10.2930    -1.8960 hc         1 HA2       0.032700
     52 H192        -4.6770    11.4840    -1.4590 hc         1 HA2       0.032700
     53 H201        -4.5680    10.7720     0.7360 hc         1 HA2       0.014200
     54 H202        -5.0510     9.1200     0.3360 hc         1 HA2       0.014200
     55 H211        -7.2290    10.7660    -0.3920 hc         1 HA2       0.009200
     56 H212        -6.6930    11.3410     1.1890 hc         1 HA2       0.009200
     57 H23         -2.4060     5.0040    -5.0740 hn         1 HA2       0.225133
@<TRIPOS>BOND
     1     1     2 ar  
     2     1     6 ar  
     3     1    30 1   
     4     2     3 ar  
     5     2    31 1   
     6     3     4 ar  
     7     3    32 1   
     8     4     5 ar  
     9     4    33 1   
    10     5     6 ar  
    11     5    34 1   
    12     6     7 1   
    13     7     8 1   
    14     7    35 1   
    15     7    36 1   
    16     8     9 1   
    17     9    10 ar  
    18     9    12 ar  
    19    10    11 ar  
    20    10    37 1   
    21    11    14 ar  
    22    11    39 1   
    23    12    13 ar  
    24    12    38 1   
    25    13    14 ar  
    26    13    40 1   
    27    14    15 1   
    28    15    16 1   
    29    15    41 1   
    30    15    42 1   
    31    16    17 1   
    32    16    18 1   
    33    16    43 1   
    34    17    44 1   
    35    17    45 1   
    36    17    57 1   
    37    18    19 1   
    38    18    46 1   
    39    18    47 1   
    40    19    20 1   
    41    19    21 1   
    42    20    48 1   
    43    21    22 2   
    44    21    23 1   
    45    23    24 1   
    46    23    49 1   
    47    23    50 1   
    48    24    25 1   
    49    24    51 1   
    50    24    52 1   
    51    25    26 1   
    52    25    53 1   
    53    25    54 1   
    54    26    27 1   
    55    26    55 1   
    56    26    56 1   
    57    27    28 1   
    58    27    29 1   
@<TRIPOS>SUBSTRUCTURE
     1 HA2         1 TEMP              0 ****  ****    0 ROOT
