@<TRIPOS>MOLECULE
HA3
   42    45     1     0     0
SMALL
bcc


@<TRIPOS>ATOM
      1 CAA          0.0000     0.0000     0.0000 ca         1 HA3      -0.107000
      2 CAB          1.3930     0.0000     0.0000 ca         1 HA3      -0.092000
      3 CAC          2.1000     0.0000     1.2060 ca         1 HA3      -0.099000
      4 CAD          1.3970     0.0120     2.4150 ca         1 HA3      -0.092000
      5 CAE          0.0050     0.0180     2.4120 ca         1 HA3      -0.107000
      6 CAF         -0.7150     0.0070     1.2020 ca         1 HA3      -0.005000
      7 CAG         -2.1190     0.0360     1.1660 cc         1 HA3      -0.288600
      8 CAH         -2.9630    -0.3720     0.2060 cd         1 HA3       0.333200
      9 NAI         -4.2310    -0.1220     0.5770 nd         1 HA3      -0.594000
     10 CAJ         -4.2630     0.4640     1.7740 cc         1 HA3       0.173800
     11 CAK         -5.4800     0.9500     2.6260 c3         1 HA3       0.088700
     12 NAL         -2.9060     0.5880     2.1860 na         1 HA3       0.224100
     13 CAM         -2.5210     1.1910     3.4620 c3         1 HA3      -0.054700
     14 CAN         -3.6280     2.1110     3.8820 c3         1 HA3       0.012000
     15 NAO         -4.8880     1.3560     3.9200 n          1 HA3      -0.136800
     16 CAP         -5.3190     1.0260     5.1320 c          1 HA3       0.631700
     17 OAQ         -4.6680     1.4180     6.1130 o          1 HA3      -0.658100
     18 CAR         -6.6050     0.3410     5.4440 cc         1 HA3      -0.093700
     19 SAS         -6.8290    -0.5660     6.8280 ss         1 HA3       0.015200
     20 CAT         -7.7640     0.5280     4.8090 cd         1 HA3      -0.121000
     21 CAU         -8.8030    -0.1190     5.3810 cd         1 HA3      -0.126000
     22 CAV         -8.4630    -0.7800     6.4910 cc         1 HA3      -0.103700
     23 CAW         -9.3960    -1.5960     7.3670 c          1 HA3       0.622700
     24 OAY         -9.0220    -1.9340     8.4910 o          1 HA3      -0.603100
     25 NAX        -10.6000    -1.8730     6.8420 ns         1 HA3      -0.022400
     26 OAZ        -11.4860    -2.6030     7.5730 oh         1 HA3      -0.445100
     27 HAA         -0.5350    -0.0040    -0.9420 ha         1 HA3       0.110000
     28 HAB          1.9310    -0.0070    -0.9400 ha         1 HA3       0.104500
     29 HAC          3.1840    -0.0020     1.2040 ha         1 HA3       0.106000
     30 HAD          1.9360     0.0160     3.3550 ha         1 HA3       0.104500
     31 HAE         -0.5310     0.0250     3.3530 ha         1 HA3       0.110000
     32 HAH         -2.6680    -0.8350    -0.7280 h4         1 HA3       0.007100
     33 HAK1        -6.1510     0.1170     2.7910 h1         1 HA3       0.043200
     34 HAK2        -5.9190     1.8190     2.1500 h1         1 HA3       0.043200
     35 HAM1        -2.3860     0.4160     4.2070 h1         1 HA3       0.049200
     36 HAM2        -1.6040     1.7530     3.3390 h1         1 HA3       0.049200
     37 HAN1        -3.7130     2.9220     3.1690 h1         1 HA3       0.060200
     38 HAN2        -3.4140     2.5080     4.8670 h1         1 HA3       0.060200
     39 HAT         -7.8560     1.1160     3.9040 ha         1 HA3       0.125000
     40 HAU         -9.8110    -0.0950     4.9850 ha         1 HA3       0.119000
     41 HAX        -10.7740    -1.7000     5.8720 hn         1 HA3       0.161500
     42 HAZ        -12.3620    -2.4220     7.2760 ho         1 HA3       0.398000
@<TRIPOS>BOND
     1     1     2 ar  
     2     1     6 ar  
     3     1    27 1   
     4     2     3 ar  
     5     2    28 1   
     6     3     4 ar  
     7     3    29 1   
     8     4     5 ar  
     9     4    30 1   
    10     5     6 ar  
    11     5    31 1   
    12     6     7 1   
    13     7     8 2   
    14     7    12 1   
    15     8     9 1   
    16     8    32 1   
    17     9    10 2   
    18    10    11 1   
    19    10    12 1   
    20    11    15 1   
    21    11    33 1   
    22    11    34 1   
    23    12    13 1   
    24    13    14 1   
    25    13    35 1   
    26    13    36 1   
    27    14    15 1   
    28    14    37 1   
    29    14    38 1   
    30    15    16 1   
    31    16    17 2   
    32    16    18 1   
    33    18    19 1   
    34    18    20 2   
    35    19    22 1   
    36    20    21 1   
    37    20    39 1   
    38    21    22 2   
    39    21    40 1   
    40    22    23 1   
    41    23    24 2   
    42    23    25 1   
    43    25    26 1   
    44    25    41 1   
    45    26    42 1   
@<TRIPOS>SUBSTRUCTURE
     1 HA3         1 TEMP              0 ****  ****    0 ROOT
