@<TRIPOS>MOLECULE
HA5
   20    21     1     0     0
SMALL
bcc


@<TRIPOS>ATOM
      1 N1           0.0000     0.0000     0.0000 nc         1 HA5      -0.583300
      2 O2           1.4730     0.0000     0.0000 os         1 HA5      -0.139100
      3 C3           1.8630     0.0000     1.2970 cc         1 HA5       0.332000
      4 C4           3.3030     0.0080     1.6740 c3         1 HA5       0.099500
      5 N5           3.3470     0.6570     3.0350 n7         1 HA5      -0.587200
      6 C6           2.4920    -0.1690     3.9680 c3         1 HA5      -0.028500
      7 C7           2.9240     0.1100     5.4290 c          1 HA5       1.033600
      8 O8           2.0600    -0.1950     6.2650 o          1 HA5      -0.884300
      9 O9           4.0730     0.5970     5.6110 o          1 HA5      -0.884300
     10 C10          0.9930     0.0560     3.6460 c3         1 HA5       0.114900
     11 C11          0.8250     0.0260     2.1590 cd         1 HA5      -0.372900
     12 C12         -0.3710     0.0240     1.3110 cd         1 HA5       0.653600
     13 O13         -1.5670     0.0550     1.7080 oh         1 HA5      -0.537300
     14 H4           3.8740     0.5910     0.9620 h1         1 HA5       0.012700
     15 H4A          3.6820    -1.0060     1.7300 h1         1 HA5       0.012700
     16 HN5          4.2900     0.6690     3.3690 hn         1 HA5       0.295800
     17 H6           2.7070    -1.2100     3.7610 h1         1 HA5      -0.009300
     18 H10          0.7110     1.0390     4.0020 hc         1 HA5       0.029700
     19 H10A         0.4260    -0.7640     4.0710 hc         1 HA5       0.029700
     20 H8          -2.1290    -0.3060     1.0420 ho         1 HA5       0.412000
@<TRIPOS>BOND
     1     1     2 1   
     2     1    12 2   
     3     2     3 1   
     4     3     4 1   
     5     3    11 2   
     6     4     5 1   
     7     4    14 1   
     8     4    15 1   
     9     5     6 1   
    10     5    16 1   
    11     6     7 1   
    12     6    10 1   
    13     6    17 1   
    14     7     8 1   
    15     7     9 1   
    16    10    11 1   
    17    10    18 1   
    18    10    19 1   
    19    11    12 1   
    20    12    13 1   
    21    13    20 1   
@<TRIPOS>SUBSTRUCTURE
     1 HA5         1 TEMP              0 ****  ****    0 ROOT
