@<TRIPOS>MOLECULE
molecule
   24    26     1     0     0
SMALL
bcc


@<TRIPOS>ATOM
      1 C1           0.0000     0.0000     0.0000 ca         1 HA6      -0.198600
      2 N1          -2.7320    -0.0000     0.1150 nb         1 HA6      -0.655000
      3 O1           2.0330    -0.0010     3.5320 os         1 HA6      -0.290700
      4 C01          1.4690     0.0000     0.0000 c          1 HA6       0.724100
      5 N01          2.0910     0.0000     1.2030 ns         1 HA6      -0.463400
      6 O01          2.1010    -0.0010    -1.0400 o          1 HA6      -0.599500
      7 C02          1.3660    -0.0010     2.3570 cc         1 HA6       0.713200
      8 N02          0.7560     0.3190     6.7880 na         1 HA6      -0.046600
      9 C03          1.3060     0.1110     4.6790 cc         1 HA6      -0.117200
     10 N03         -0.4210     0.2390     6.0320 nd         1 HA6      -0.503800
     11 C04          1.8080     0.2370     5.9320 cd         1 HA6      -0.114300
     12 N04          0.0590    -0.0010     2.3840 nd         1 HA6      -0.727100
     13 C05         -0.0930     0.1140     4.7720 cc         1 HA6       0.324200
     14 C06         -0.6700    -0.0010     1.2450 ca         1 HA6       0.097100
     15 C07         -2.0690     0.0000     1.2510 ca         1 HA6       0.422200
     16 C08         -2.1330    -0.0050    -1.0630 ca         1 HA6       0.384200
     17 C09         -0.7570    -0.0050    -1.1700 ca         1 HA6      -0.165300
     18 HN01         3.0910     0.0000     1.2450 hn         1 HA6       0.349500
     19 H04          2.8560     0.2680     6.2010 h4         1 HA6       0.180000
     20 H05         -0.7840     0.0290     3.9420 h4         1 HA6       0.111100
     21 H07         -2.6070     0.0040     2.1910 h4         1 HA6       0.042100
     22 H08         -2.7350    -0.0050    -1.9640 h4         1 HA6       0.031100
     23 H09         -0.2760    -0.0090    -2.1410 ha         1 HA6       0.161000
     24 HN02         0.8120     0.4190     7.7820 hn         1 HA6       0.338700
@<TRIPOS>BOND
     1     1     4 1
     2     1    14 ar
     3     1    17 ar
     4     2    15 ar
     5     2    16 ar
     6     3     7 1
     7     3     9 1
     8     4     5 1
     9     4     6 2
    10     5     7 1
    11     7    12 2
    12     8    10 1
    13     8    11 1
    14     9    11 2
    15     9    13 1
    16    10    13 2
    17    12    14 1
    18    14    15 ar
    19    16    17 ar
    20     5    18 1
    21     8    24 1
    22    11    19 1
    23    13    20 1
    24    15    21 1
    25    16    22 1
    26    17    23 1
@<TRIPOS>SUBSTRUCTURE
     1 HA6         1 TEMP              0 ****  ****    0 ROOT
