@<TRIPOS>MOLECULE
molecule
   20    21     1     0     0
SMALL
bcc


@<TRIPOS>ATOM
      1 C1           0.0000     0.0000     0.0000 cc         1 HA7       0.604600
      2 N1           1.3330     0.0000     0.0000 nd         1 HA7      -0.555300
      3 O1           1.7560     0.0000     1.3830 os         1 HA7      -0.101100
      4 C2          -0.4810     0.0050     1.2970 cc         1 HA7      -0.461900
      5 N2          -1.0440    -0.2290     4.0280 n7         1 HA7      -0.831200
      6 C3          -1.9340     0.0170     1.7450 c3         1 HA7       0.016900
      7 C4          -1.9710     0.5490     3.1810 c3         1 HA7       0.156800
      8 O4          -0.7190     0.0010    -0.9940 oh         1 HA7      -0.557300
      9 C5           0.3760    -0.0220     3.6790 c3         1 HA7      -0.001800
     10 C6           0.6130     0.0110     2.1540 cd         1 HA7       0.430000
     11 C7           0.8980     1.2220     4.3740 c          1 HA7       0.903600
     12 HN2         -1.1890     0.0100     4.9890 hn         1 HA7       0.390800
     13 H3          -2.5110     0.6670     1.0990 hc         1 HA7       0.034700
     14 H3A         -2.3340    -0.9890     1.7170 hc         1 HA7       0.034700
     15 H4          -1.6310     1.5780     3.1680 h1         1 HA7       0.036200
     16 H4A         -2.9740     0.4090     3.5650 h1         1 HA7       0.036200
     17 H5           0.9270    -0.8690     4.0680 h1         1 HA7       0.071700
     18 H8          -0.1840    -0.0540    -1.7680 ho         1 HA7       0.431000
     19 O2           1.7210     1.9210     3.7460 o          1 HA7      -0.818800
     20 O3           0.4920     1.3990     5.5400 o          1 HA7      -0.818800
@<TRIPOS>BOND
     1     1     2 2
     2     1     4 1
     3     2     3 1
     4     3    10 1
     5     4    10 2
     6     5     9 1
     7     5    12 1
     8     6     4 1
     9     6     7 1
    10     6    13 1
    11     6    14 1
    12     7     5 1
    13     7    15 1
    14     7    16 1
    15     8     1 1
    16     9    11 1
    17     9    17 1
    18    10     9 1
    19    11    19 1
    20    11    20 1
    21     8    18 1
@<TRIPOS>SUBSTRUCTURE
     1 HA7         1 TEMP              0 ****  ****    0 ROOT
