@<TRIPOS>MOLECULE
HA8
   23    24     1     0     0
SMALL
bcc


@<TRIPOS>ATOM
      1 C14          0.0000     0.0000     0.0000 c2         1 HA8      -0.155000
      2 C13          1.3100     0.0000     0.0000 c2         1 HA8      -0.154200
      3 C12          2.0630     0.0000     1.3050 c3         1 HA8      -0.045500
      4 C11          3.0200    -1.1650     1.3340 c2         1 HA8       0.480200
      5 N1           4.7130    -3.2660     1.3780 nb         1 HA8      -0.671000
      6 C2           5.5450    -4.2880     1.4010 ca         1 HA8       0.620900
      7 N3           6.8350    -4.1480     1.6210 nb         1 HA8      -0.564000
      8 C4           7.3620    -2.9410     1.8340 ca         1 HA8       0.526300
      9 C5           6.5100    -1.8200     1.8190 ca         1 HA8      -0.503800
     10 C6           5.1470    -2.0200     1.5810 ca         1 HA8       0.599300
     11 N10          4.2770    -0.9620     1.5550 ne         1 HA8      -0.617700
     12 N7           7.3120    -0.7290     2.0630 na         1 HA8       0.315700
     13 C8           8.5760    -1.1860     2.2150 cc         1 HA8       0.252700
     14 N9           8.6040    -2.4820     2.0820 nd         1 HA8      -0.584700
     15 H14         -0.5420     0.0000     0.9380 ha         1 HA8       0.086000
     16 H14A        -0.5420     0.0000    -0.9380 ha         1 HA8       0.086000
     17 H13          1.8510     0.0000    -0.9380 ha         1 HA8       0.106000
     18 H12          2.6180     0.9260     1.4020 hc         1 HA8       0.033200
     19 H12A         1.3620    -0.0880     2.1270 hc         1 HA8       0.033200
     20 H11          2.6480    -2.1750     1.2130 h4         1 HA8      -0.012200
     21 HN7          7.0150     0.2250     2.1180 hn         1 HA8       0.137700
     22 H8           9.4400    -0.5640     2.4190 h5         1 HA8       0.031800
     23 H2           5.1510    -5.2830     1.2320 h5         1 HA8       0.001100
@<TRIPOS>BOND
     1     1     2 2   
     2     1    15 1   
     3     1    16 1   
     4     2     3 1   
     5     2    17 1   
     6     3     4 1   
     7     3    18 1   
     8     3    19 1   
     9     4    11 2   
    10     4    20 1   
    11     5     6 ar  
    12     5    10 ar  
    13     6     7 ar  
    14     6    23 1   
    15     7     8 ar  
    16     8     9 ar  
    17     8    14 1   
    18     9    10 ar  
    19     9    12 1   
    20    10    11 1   
    21    12    13 1   
    22    12    21 1   
    23    13    14 2   
    24    13    22 1   
@<TRIPOS>SUBSTRUCTURE
     1 HA8         1 TEMP              0 ****  ****    0 ROOT
