@<TRIPOS>MOLECULE
molecule
   19    19     1     0     0
SMALL
bcc


@<TRIPOS>ATOM
      1 C1           0.0000     0.0000     0.0000 c          1 HAA       0.893600
      2 C2           1.5060     0.0000     0.0000 c3         1 HAA      -0.155100
      3 C1'          2.0090     0.0000     1.4210 ca         1 HAA       0.003700
      4 C2'          2.2460     1.1970     2.0670 ca         1 HAA      -0.148000
      5 C3'          2.7040     1.2000     3.3750 ca         1 HAA       0.083100
      6 O3'          2.9330     2.3770     4.0150 oh         1 HAA      -0.530100
      7 C4'          2.9350    -0.0050     4.0300 ca         1 HAA       0.048100
      8 O4'          3.3890    -0.0080     5.3110 oh         1 HAA      -0.521100
      9 C5'          2.7000    -1.2030     3.3740 ca         1 HAA      -0.156000
     10 C6'          2.2380    -1.1980     2.0710 ca         1 HAA      -0.120000
     11 O1          -0.6030     0.0020     1.0470 o          1 HAA      -0.842800
     12 O2          -0.6720    -0.0000    -1.1610 o          1 HAA      -0.842800
     13 H21          1.8670     0.8840    -0.5110 hc         1 HAA       0.041200
     14 H22          1.8670    -0.8840    -0.5110 hc         1 HAA       0.041200
     15 H2'          2.1080     2.1340     1.5400 ha         1 HAA       0.139000
     16 HO3          2.1100     2.7900     4.2190 ho         1 HAA       0.416000
     17 HO4          4.3020    -0.2460     5.3210 ho         1 HAA       0.399000
     18 H5'          2.8790    -2.1430     3.8820 ha         1 HAA       0.120000
     19 H6'          2.0550    -2.1350     1.5590 ha         1 HAA       0.132000
@<TRIPOS>BOND
     1     1     2 1
     2     1    11 1
     3     1    12 1
     4     2     3 1
     5     2    13 1
     6     2    14 1
     7     3     4 ar
     8     3    10 ar
     9     4     5 ar
    10     4    15 1
    11     5     6 1
    12     5     7 ar
    13     6    16 1
    14     7     8 1
    15     7     9 ar
    16     8    17 1
    17     9    10 ar
    18     9    18 1
    19    10    19 1
@<TRIPOS>SUBSTRUCTURE
     1 HAA         1 TEMP              0 ****  ****    0 ROOT
