@<TRIPOS>MOLECULE
HAA
   19    19     1     0     0
SMALL
bcc


@<TRIPOS>ATOM
      1 C1          0.0690    0.6220   -0.0940 c         1 HAA      0.917600
      2 C2          1.4740   -0.0130    0.0340 c3        1 HAA     -0.173100
      3 C1'         1.9670   -0.1100    1.4280 ca        1 HAA     -0.014300
      4 C2'         1.8070    0.9720    2.3040 ca        1 HAA     -0.162000
      5 C3'         2.2940    0.8880    3.6090 ca        1 HAA      0.030100
      6 O3'         2.1680    1.9220    4.5230 oh        1 HAA     -0.542100
      7 C4'         2.9510   -0.2750    4.0570 ca        1 HAA      0.066100
      8 O4'         3.4670   -0.3960    5.3330 oh        1 HAA     -0.519100
      9 C5'         3.1070   -1.3560    3.1840 ca        1 HAA     -0.146000
     10 C6'         2.6150   -1.2670    1.8840 ca        1 HAA     -0.152000
     11 O1         -0.0840    1.8250    0.2690 o         1 HAA     -0.841800
     12 O2         -0.8450   -0.0880   -0.5940 o         1 HAA     -0.841800
     13 H21         2.1800    0.6320   -0.5530 hc        1 HAA      0.039200
     14 H22         1.4500   -1.0270   -0.4410 hc        1 HAA      0.039200
     15 H2'         1.2580    1.8650    1.9450 ha        1 HAA      0.198000
     16 HO3         1.5540    2.5630    4.1380 ho        1 HAA      0.428000
     17 HO4         3.1880    0.3880    5.8280 ho        1 HAA      0.422000
     18 H5'         3.6130   -2.2640    3.5380 ha        1 HAA      0.128000
     19 H6'         2.7290   -2.1240    1.2050 ha        1 HAA      0.124000
@<TRIPOS>BOND
     1    1    2 1   
     2    1   11 1   
     3    1   12 1   
     4    2    3 1   
     5    2   13 1   
     6    2   14 1   
     7    3    4 ar  
     8    3   10 ar  
     9    4    5 ar  
    10    4   15 1   
    11    5    6 1   
    12    5    7 ar  
    13    6   16 1   
    14    7    8 1   
    15    7    9 ar  
    16    8   17 1   
    17    9   10 ar  
    18    9   18 1   
    19   10   19 1   
@<TRIPOS>SUBSTRUCTURE
     1 HAA         1 TEMP              0 ****  ****    0 ROOT
