@<TRIPOS>MOLECULE
molecule
   27    28     1     0     0
SMALL
bcc


@<TRIPOS>ATOM
      1 C1           0.0000     0.0000     0.0000 ca         1 HAB       0.083400
      2 C2           1.4100     0.0000     0.0000 ca         1 HAB      -0.026600
      3 C3           2.0970     0.0000     1.2130 ca         1 HAB      -0.117000
      4 C4           1.3970    -0.0090     2.4030 ca         1 HAB      -0.127000
      5 C5           0.0120    -0.0130     2.4030 ca         1 HAB      -0.175000
      6 C6          -0.6880    -0.0090     1.2140 ca         1 HAB      -0.126000
      7 C1'         -2.6630     0.0060    -2.3520 ca         1 HAB       0.147400
      8 C2'         -4.0620     0.0020    -2.3490 ca         1 HAB      -0.097500
      9 C3'         -4.7510     0.0060    -3.5410 ca         1 HAB      -0.172500
     10 C4'         -4.0590     0.0160    -4.7460 ca         1 HAB       0.082100
     11 C5'         -2.6680     0.0150    -4.7540 ca         1 HAB      -0.172500
     12 C6'         -1.9710     0.0160    -3.5680 ca         1 HAB      -0.097500
     13 C            2.1530     0.0090    -1.2740 c          1 HAB       0.874200
     14 N1          -0.6870     0.0060    -1.1800 ne         1 HAB      -0.099400
     15 N1'         -1.9770     0.0020    -1.1740 nf         1 HAB      -0.312400
     16 O            1.5490     0.0080    -2.3290 o          1 HAB      -0.819800
     17 OXT          3.4990     0.0180    -1.2680 o          1 HAB      -0.819800
     18 O4'         -4.7420     0.0210    -5.9180 oh         1 HAB      -0.532100
     19 H3           3.1800     0.0020     1.2220 ha         1 HAB       0.162000
     20 H4           1.9350    -0.0100     3.3430 ha         1 HAB       0.108000
     21 H5          -0.5260    -0.0200     3.3430 ha         1 HAB       0.107000
     22 H6          -1.7710    -0.0110     1.2230 ha         1 HAB       0.136000
     23 H2'         -4.6010     0.0800    -1.4120 ha         1 HAB       0.163500
     24 H3'         -5.8340     0.0210    -3.5390 ha         1 HAB       0.131000
     25 H5'         -2.1330     0.0330    -5.6960 ha         1 HAB       0.131000
     26 H6'         -0.9140     0.0430    -3.8040 ha         1 HAB       0.163500
     27 HO4'        -4.9410    -0.8660    -6.1700 ho         1 HAB       0.408000
@<TRIPOS>BOND
     1     1     2 ar
     2     1     6 ar
     3     1    14 1
     4     2     3 ar
     5     2    13 1
     6     3     4 ar
     7     3    19 1
     8     4     5 ar
     9     4    20 1
    10     5     6 ar
    11     5    21 1
    12     6    22 1
    13     7     8 ar
    14     7    12 ar
    15     7    15 1
    16     8     9 ar
    17     8    23 1
    18     9    10 ar
    19     9    24 1
    20    10    11 ar
    21    10    18 1
    22    11    12 ar
    23    11    25 1
    24    12    26 1
    25    13    16 1
    26    13    17 1
    27    14    15 2
    28    18    27 1
@<TRIPOS>SUBSTRUCTURE
     1 HAB         1 TEMP              0 ****  ****    0 ROOT
