@<TRIPOS>MOLECULE
HAE
   10     9     1     0     0
SMALL
bcc


@<TRIPOS>ATOM
      1 C1           0.0000     0.0000     0.0000 c3         1 HAE      -0.061100
      2 C2           1.5070     0.0000     0.0000 c          1 HAE       0.567100
      3 O2           2.1130     0.0000     1.0510 o          1 HAE      -0.617100
      4 N            2.1810    -0.0000    -1.1660 ns         1 HAE      -0.062400
      5 O            3.5970     0.0000    -1.1650 oh         1 HAE      -0.438100
      6 H11         -0.3610    -0.8840    -0.5110 hc         1 HAE       0.022033
      7 H12         -0.3610    -0.0000     1.0210 hc         1 HAE       0.022033
      8 H13         -0.3610     0.8850    -0.5110 hc         1 HAE       0.022033
      9 HN           1.6810    -0.0000    -2.0330 hn         1 HAE       0.153500
     10 HO           3.9120    -0.0000    -2.0540 ho         1 HAE       0.391000
@<TRIPOS>BOND
     1     1     2 1   
     2     1     6 1   
     3     1     7 1   
     4     1     8 1   
     5     2     3 2   
     6     2     4 1   
     7     4     5 1   
     8     4     9 1   
     9     5    10 1   
@<TRIPOS>SUBSTRUCTURE
     1 HAE         1 TEMP              0 ****  ****    0 ROOT
