@<TRIPOS>MOLECULE
HAG
   63    63     1     0     0
SMALL
bcc


@<TRIPOS>ATOM
      1 C1           0.0000     0.0000     0.0000 c          1 HAG       0.951600
      2 C2           6.0300     1.4190     4.9640 c          1 HAG       0.524100
      3 C3           6.8400     4.6540     3.3710 c          1 HAG       0.975600
      4 N1           1.9960     1.2000    -0.6910 nz         1 HAG       0.041400
      5 CA1          1.5070     0.0000     0.0000 c3         1 HAG      -0.123500
      6 O11         -0.6710    -1.1620    -0.0010 o          1 HAG      -0.819300
      7 O12         -0.6040     1.0470     0.0010 o          1 HAG      -0.819300
      8 CB1          2.0170     0.0000     1.4420 c3         1 HAG      -0.125400
      9 CG1          3.5470     0.0000     1.4430 c3         1 HAG      -0.073400
     10 CD1          4.0500     0.0000     2.8630 c          1 HAG       0.579100
     11 OE1          3.2620    -0.0010     3.7850 o          1 HAG      -0.622100
     12 N2           5.3740    -0.0010     3.1080 ns         1 HAG      -0.201900
     13 CA2          5.8620    -0.0020     4.4900 c3         1 HAG       0.028700
     14 CB2          7.2090    -0.7220     4.5540 c3         1 HAG      -0.128300
     15 SG2          7.0080    -2.4330     3.9830 ss         1 HAG      -0.373200
     16 CA3          6.5000     3.7730     4.5440 c3         1 HAG      -0.072000
     17 O31          7.0370     5.9690     3.5540 o          1 HAG      -0.892300
     18 O32          6.9350     4.1780     2.2640 o          1 HAG      -0.892300
     19 C41          8.7130    -3.0270     4.1620 c3         1 HAG       0.020400
     20 C42          9.1720    -2.9530     5.6450 c3         1 HAG      -0.141400
     21 O42         11.4820    -3.6190     5.1940 oh         1 HAG      -0.596800
     22 C43         10.2250    -4.0880     5.6850 c3         1 HAG       0.419900
     23 O43          9.7050    -5.1130     4.8240 os         1 HAG      -0.416600
     24 C44          8.8080    -4.5390     3.8670 c3         1 HAG       0.235100
     25 C45          9.3490    -4.7580     2.4530 c3         1 HAG      -0.165400
     26 C46          9.4450    -6.2600     2.1710 c3         1 HAG       0.019600
     27 C47          9.9870    -6.4790     0.7570 c3         1 HAG      -0.030400
     28 C48         10.0830    -7.9790     0.4740 c3         1 HAG      -0.029400
     29 C49         10.6240    -8.1990    -0.9400 c3         1 HAG       0.005900
     30 HN11         2.9100     1.0230    -1.0600 hn         1 HAG       0.217800
     31 HN12         2.0390     1.9630    -0.0450 hn         1 HAG       0.217800
     32 HCA1         1.8680    -0.8840    -0.5110 hx         1 HAG       0.061700
     33 HB11         1.4380    -0.3590     2.2840 hc         1 HAG       0.088700
     34 HB12         2.1580    -0.8910     0.8420 hc         1 HAG       0.088700
     35 HG12         3.9080    -0.8840     0.9320 hc         1 HAG       0.011200
     36 HG11         3.9080     0.8850     0.9320 hc         1 HAG       0.011200
     37 HN21         6.0240    -0.0520     2.3490 hn         1 HAG       0.191500
     38 HCA2         5.1490    -0.5130     5.1250 h1         1 HAG       0.075700
     39 HB21         8.0220    -0.4210     5.2040 h1         1 HAG       0.113200
     40 HB22         6.4320    -1.0130     5.2510 h1         1 HAG       0.113200
     41 HN31         6.4920     2.1640     3.1210 hn         1 HAG       0.190500
     42 HA31         7.3000     3.8180     5.2740 h1         1 HAG       0.028200
     43 HA32         5.5690     4.0720     5.0100 h1         1 HAG       0.028200
     44 HC41         9.3900    -2.4710     3.5250 h1         1 HAG       0.078700
     45 H421         8.4720    -2.7140     6.4370 hc         1 HAG       0.077700
     46 H422         9.7490    -2.1780     5.1550 hc         1 HAG       0.077700
     47 HO42        12.1590    -3.8200     5.8200 ho         1 HAG       0.395000
     48 HC43        10.3280    -4.4660     6.6950 h2         1 HAG       0.007700
     49 HC44         7.8300    -4.9930     3.9650 h1         1 HAG       0.033700
     50 H451         9.5970    -3.9150     1.8200 hc         1 HAG       0.060200
     51 H452         8.2900    -4.9530     2.5710 hc         1 HAG       0.060200
     52 H461        10.1130    -6.7200     2.8890 hc         1 HAG       0.014200
     53 H462         8.4620    -6.7070     2.2540 hc         1 HAG       0.014200
     54 H471        10.9700    -6.0320     0.6730 hc         1 HAG       0.015200
     55 H472         9.3190    -6.0180     0.0390 hc         1 HAG       0.015200
     56 H481        10.7510    -8.4390     1.1920 hc         1 HAG       0.011700
     57 H482         9.1000    -8.4260     0.5580 hc         1 HAG       0.011700
     58 H491         9.9550    -7.7390    -1.6580 hc         1 HAG      -0.001300
     59 H492        11.6070    -7.7510    -1.0250 hc         1 HAG      -0.001300
     60 H493        10.6920    -9.2610    -1.1400 hc         1 HAG      -0.001300
     61 N3           6.3370     2.3910     4.0830 ns         1 HAG      -0.129900
     62 H13          1.3740     1.4310    -1.4400 hn         1 HAG       0.217800
     63 O2           5.8880     1.6870     6.1380 o          1 HAG      -0.672100
@<TRIPOS>BOND
     1     1     5 1   
     2     1     6 1   
     3     1     7 1   
     4     2    13 1   
     5     2    61 1   
     6     2    63 2   
     7     3    16 1   
     8     3    17 1   
     9     3    18 1   
    10     4     5 1   
    11     4    30 1   
    12     4    31 1   
    13     4    62 1   
    14     5     8 1   
    15     5    32 1   
    16     8     9 1   
    17     8    33 1   
    18     8    34 1   
    19     9    10 1   
    20     9    35 1   
    21     9    36 1   
    22    10    11 2   
    23    10    12 1   
    24    12    13 1   
    25    12    37 1   
    26    13    14 1   
    27    13    38 1   
    28    14    15 1   
    29    14    39 1   
    30    14    40 1   
    31    15    19 1   
    32    16    42 1   
    33    16    43 1   
    34    16    61 1   
    35    19    20 1   
    36    19    24 1   
    37    19    44 1   
    38    20    22 1   
    39    20    45 1   
    40    20    46 1   
    41    21    22 1   
    42    21    47 1   
    43    22    23 1   
    44    22    48 1   
    45    23    24 1   
    46    24    25 1   
    47    24    49 1   
    48    25    26 1   
    49    25    50 1   
    50    25    51 1   
    51    26    27 1   
    52    26    52 1   
    53    26    53 1   
    54    27    28 1   
    55    27    54 1   
    56    27    55 1   
    57    28    29 1   
    58    28    56 1   
    59    28    57 1   
    60    29    58 1   
    61    29    59 1   
    62    29    60 1   
    63    41    61 1   
@<TRIPOS>SUBSTRUCTURE
     1 HAG         1 TEMP              0 ****  ****    0 ROOT
