@<TRIPOS>MOLECULE
HAH
   35    36     1     0     0
SMALL
bcc


@<TRIPOS>ATOM
      1 C1           0.0000     0.0000     0.0000 c3         1 HAH       0.148700
      2 N1          -0.4870     0.2490    -1.3630 n7         1 HAH      -0.559200
      3 C2           1.5300     0.0000     0.0000 c3         1 HAH       0.190100
      4 O2           2.0110    -1.1690    -0.6670 oh         1 HAH      -0.570800
      5 C3           2.0150     0.0000     1.4550 c3         1 HAH       0.160100
      6 O3           3.4340    -0.1670     1.4880 oh         1 HAH      -0.584800
      7 C4           1.6390     1.3410     2.0900 c3         1 HAH       0.218300
      8 O4           1.8630     1.2750     3.5010 oh         1 HAH      -0.581800
      9 C5           0.1950     1.6500     1.8280 c2         1 HAH      -0.157200
     10 C6          -0.5170     1.0700     0.9170 c2         1 HAH      -0.182200
     11 C10         -1.8350    -0.3060    -1.5510 c3         1 HAH       0.211100
     12 C11         -2.3000    -0.0310    -2.9570 ca         1 HAH      -0.132300
     13 C12         -1.8630    -0.8330    -4.0020 ca         1 HAH       0.165100
     14 O12         -1.0140    -1.8660    -3.7570 oh         1 HAH      -0.470100
     15 C13         -2.2930    -0.5780    -5.2950 ca         1 HAH      -0.183000
     16 C14         -3.1560     0.4730    -5.5410 ca         1 HAH      -0.065000
     17 C15         -3.5910     1.2700    -4.4980 ca         1 HAH      -0.134000
     18 C16         -3.1680     1.0150    -3.2070 ca         1 HAH      -0.069000
     19 H1          -0.3560    -0.9640     0.3420 h1         1 HAH       0.054700
     20 HN1         -0.5060     1.2340    -1.5370 hn         1 HAH       0.253800
     21 H2           1.8930     0.8880    -0.5030 h1         1 HAH       0.012700
     22 HO2          2.6640    -0.9220    -1.3020 ho         1 HAH       0.397000
     23 H3           1.5360    -0.8060     1.9970 h1         1 HAH       0.025700
     24 HO3          3.6520    -0.9020     2.0360 ho         1 HAH       0.399000
     25 H4           2.2550     2.1230     1.6620 h1         1 HAH       0.017700
     26 HO4          2.2260     2.0920     3.8000 ho         1 HAH       0.391000
     27 H5          -0.2820     2.4070     2.4400 ha         1 HAH       0.102000
     28 H6          -1.5510     1.3750     0.8090 ha         1 HAH       0.103000
     29 H10         -2.5170     0.1560    -0.8470 h1         1 HAH       0.012700
     30 H10A        -1.8110    -1.3760    -1.3810 h1         1 HAH       0.012700
     31 HO12        -1.3160    -2.6350    -4.2120 ho         1 HAH       0.397000
     32 H13         -1.9530    -1.2020    -6.1130 ha         1 HAH       0.111000
     33 H14         -3.4910     0.6740    -6.5520 ha         1 HAH       0.101000
     34 H15         -4.2690     2.0920    -4.6920 ha         1 HAH       0.104000
     35 H16         -3.5090     1.6410    -2.3910 ha         1 HAH       0.103000
@<TRIPOS>BOND
     1     1     2 1   
     2     1     3 1   
     3     1    10 1   
     4     1    19 1   
     5     2    11 1   
     6     2    20 1   
     7     3     4 1   
     8     3     5 1   
     9     3    21 1   
    10     4    22 1   
    11     5     6 1   
    12     5     7 1   
    13     5    23 1   
    14     6    24 1   
    15     7     8 1   
    16     7     9 1   
    17     7    25 1   
    18     8    26 1   
    19     9    10 2   
    20     9    27 1   
    21    10    28 1   
    22    11    12 1   
    23    11    29 1   
    24    11    30 1   
    25    12    13 ar  
    26    12    18 ar  
    27    13    14 1   
    28    13    15 ar  
    29    14    31 1   
    30    15    16 ar  
    31    15    32 1   
    32    16    17 ar  
    33    16    33 1   
    34    17    18 ar  
    35    17    34 1   
    36    18    35 1   
@<TRIPOS>SUBSTRUCTURE
     1 HAH         1 TEMP              0 ****  ****    0 ROOT
