@<TRIPOS>MOLECULE
HAI
   21    21     1     0     0
SMALL
bcc


@<TRIPOS>ATOM
      1 C1           0.0000     0.0000     0.0000 c3         1 HAI      -0.085500
      2 C2           1.5300     0.0000     0.0000 c3         1 HAI      -0.028400
      3 C3           2.0400     0.0000     1.4420 c3         1 HAI      -0.012400
      4 C4           1.5310     1.2500     2.1630 c3         1 HAI      -0.031400
      5 C5           0.0010     1.2500     2.1630 c3         1 HAI      -0.012400
      6 C6          -0.5090     1.2500     0.7210 c3         1 HAI      -0.028400
      7 N           -0.4900    -0.0010    -1.3850 nz         1 HAI       0.076400
      8 H1          -0.3590    -0.8830     0.5150 hx         1 HAI       0.095700
      9 H21          1.8900     0.8860    -0.5090 hc         1 HAI       0.032700
     10 H22          1.8900    -0.8860    -0.5090 hc         1 HAI       0.032700
     11 H31          1.6760    -0.8830     1.9530 hc         1 HAI       0.038200
     12 H32          3.1230     0.0020     1.4410 hc         1 HAI       0.038200
     13 H41          1.8910     2.1330     1.6500 hc         1 HAI       0.036200
     14 H42          1.8910     1.2480     3.1850 hc         1 HAI       0.036200
     15 H51         -0.3590     2.1360     2.6720 hc         1 HAI       0.038200
     16 H52         -0.3590     0.3640     2.6720 hc         1 HAI       0.038200
     17 H61         -1.5920     1.2480     0.7220 hc         1 HAI       0.032700
     18 H62         -0.1450     2.1330     0.2110 hc         1 HAI       0.032700
     19 HN1         -1.4910    -0.0000    -1.3850 hn         1 HAI       0.223800
     20 HN2         -0.1570    -0.8180    -1.8560 hn         1 HAI       0.223800
     21 HN3         -0.1560     0.8160    -1.8570 hn         1 HAI       0.223800
@<TRIPOS>BOND
     1     1     2 1   
     2     1     6 1   
     3     1     7 1   
     4     1     8 1   
     5     2     3 1   
     6     2     9 1   
     7     2    10 1   
     8     3     4 1   
     9     3    11 1   
    10     3    12 1   
    11     4     5 1   
    12     4    13 1   
    13     4    14 1   
    14     5     6 1   
    15     5    15 1   
    16     5    16 1   
    17     6    17 1   
    18     6    18 1   
    19     7    19 1   
    20     7    20 1   
    21     7    21 1   
@<TRIPOS>SUBSTRUCTURE
     1 HAI         1 TEMP              0 ****  ****    0 ROOT
