@<TRIPOS>MOLECULE
HAJ
   37    41     1     0     0
SMALL
bcc


@<TRIPOS>ATOM
      1 F2           0.0000     0.0000     0.0000 f          1 HAJ      -0.109900
      2 C1           1.3510     0.0000     0.0000 ca         1 HAJ       0.167900
      3 C15          2.0460     0.0000     1.1910 ca         1 HAJ      -0.143000
      4 C14          3.4350     0.0000     1.1980 ca         1 HAJ      -0.054000
      5 C13          4.1460     0.0010     0.0200 ca         1 HAJ      -0.153300
      6 C12          3.4680     0.0020    -1.2010 ca         1 HAJ       0.392600
      7 C3           2.0540    -0.0060    -1.2060 ca         1 HAJ      -0.166300
      8 N11          4.1320     0.0010    -2.3820 nc         1 HAJ      -0.576000
      9 C10          3.5120     0.0010    -3.5230 cd         1 HAJ       0.370800
     10 N9           2.1560     0.0000    -3.6290 na         1 HAJ       0.454200
     11 N8           1.2700    -0.0010    -4.7150 nc         1 HAJ      -0.759100
     12 C6           0.0510    -0.0010    -4.2200 cd         1 HAJ       0.654200
     13 N7          -1.1230    -0.0030    -4.9710 nv         1 HAJ      -0.527800
     14 N5           0.1150    -0.0010    -2.8880 nd         1 HAJ      -0.372300
     15 C4           1.3750    -0.0110    -2.5050 cc         1 HAJ      -0.128300
     16 C16          4.3320     0.0010    -4.7870 c3         1 HAJ      -0.006400
     17 C17          5.7980     0.0020    -4.4350 ca         1 HAJ      -0.080300
     18 C25          6.4700    -1.1950    -4.2730 ca         1 HAJ      -0.084000
     19 C24          7.8140    -1.1990    -3.9500 ca         1 HAJ      -0.086000
     20 C23          8.4920    -0.0010    -3.7870 ca         1 HAJ       0.057100
     21 C19          7.8150     1.2050    -3.9500 ca         1 HAJ       0.057100
     22 C18          6.4690     1.2020    -4.2790 ca         1 HAJ      -0.071000
     23 O22          9.7920     0.2670    -3.4740 os         1 HAJ      -0.314900
     24 C21         10.0020     1.6410    -3.8470 c3         1 HAJ       0.431200
     25 O20          8.6920     2.2290    -3.7390 os         1 HAJ      -0.314900
     26 H15          1.5040    -0.0010     2.1290 ha         1 HAJ       0.124000
     27 H14          3.9650     0.0000     2.1420 ha         1 HAJ       0.110000
     28 H13          5.2290     0.0010     0.0400 ha         1 HAJ       0.127000
     29 H161         4.1000     0.8850    -5.3680 hc         1 HAJ       0.042700
     30 H162         4.1010    -0.8840    -5.3680 hc         1 HAJ       0.042700
     31 H7A         -1.3370    -0.7800    -5.5640 hn         1 HAJ       0.278800
     32 H7B         -1.7510     0.7740    -4.9190 hn         1 HAJ       0.278800
     33 H25          5.9440    -2.1320    -4.4090 ha         1 HAJ       0.109000
     34 H18          5.9500     2.1380    -4.4440 ha         1 HAJ       0.113000
     35 H24          8.3370    -2.1390    -3.8250 ha         1 HAJ       0.112000
     36 H211        10.3460     1.6960    -4.8730 h2         1 HAJ       0.013700
     37 H212        10.6770     2.1140    -3.1440 h2         1 HAJ       0.013700
@<TRIPOS>BOND
     1     1     2 1   
     2     2     3 ar  
     3     2     7 ar  
     4     3     4 ar  
     5     3    26 1   
     6     4     5 ar  
     7     4    27 1   
     8     5     6 ar  
     9     5    28 1   
    10     6     7 ar  
    11     6     8 1   
    12     7    15 1   
    13     8     9 2   
    14     9    10 1   
    15     9    16 1   
    16    10    11 1   
    17    10    15 1   
    18    11    12 2   
    19    12    13 1   
    20    12    14 1   
    21    13    31 1   
    22    13    32 1   
    23    14    15 2   
    24    16    17 1   
    25    16    29 1   
    26    16    30 1   
    27    17    18 ar  
    28    17    22 ar  
    29    18    19 ar  
    30    18    33 1   
    31    19    20 ar  
    32    19    35 1   
    33    20    21 ar  
    34    20    23 1   
    35    21    22 ar  
    36    21    25 1   
    37    22    34 1   
    38    23    24 1   
    39    24    25 1   
    40    24    36 1   
    41    24    37 1   
@<TRIPOS>SUBSTRUCTURE
     1 HAJ         1 TEMP              0 ****  ****    0 ROOT
