@<TRIPOS>MOLECULE
molecule
   37    41     1     0     0
SMALL
bcc


@<TRIPOS>ATOM
      1 F2           0.0000     0.0000     0.0000 f          1 HAJ      -0.111900
      2 C1           1.3510     0.0000     0.0000 ca         1 HAJ       0.191900
      3 C15          2.0460     0.0000     1.1910 ca         1 HAJ      -0.185000
      4 C14          3.4350     0.0000     1.1980 ca         1 HAJ      -0.078000
      5 C13          4.1460     0.0010     0.0200 ca         1 HAJ      -0.188300
      6 C12          3.4680     0.0020    -1.2010 ca         1 HAJ       0.454600
      7 C3           2.0540    -0.0060    -1.2060 ca         1 HAJ      -0.187300
      8 N11          4.1320     0.0010    -2.3820 nc         1 HAJ      -0.703000
      9 C10          3.5120     0.0010    -3.5230 cd         1 HAJ       0.601800
     10 N9           2.1560     0.0000    -3.6290 na         1 HAJ      -0.016800
     11 N8           1.2700    -0.0010    -4.7150 nc         1 HAJ      -0.608100
     12 C6           0.0510    -0.0010    -4.2200 cd         1 HAJ       0.798200
     13 N7          -1.1230    -0.0030    -4.9710 nv         1 HAJ      -0.988800
     14 N5           0.1150    -0.0010    -2.8880 nd         1 HAJ      -0.447300
     15 C4           1.3750    -0.0110    -2.5050 cc         1 HAJ       0.055700
     16 C16          4.3320     0.0010    -4.7870 c3         1 HAJ      -0.073400
     17 C17          5.7980     0.0020    -4.4350 ca         1 HAJ      -0.071300
     18 C25          6.4700    -1.1950    -4.2730 ca         1 HAJ      -0.107000
     19 C24          7.8140    -1.1990    -3.9500 ca         1 HAJ      -0.112000
     20 C23          8.4920    -0.0010    -3.7870 ca         1 HAJ       0.051100
     21 C19          7.8150     1.2050    -3.9500 ca         1 HAJ       0.049100
     22 C18          6.4690     1.2020    -4.2790 ca         1 HAJ      -0.095000
     23 O22          9.7920     0.2670    -3.4740 os         1 HAJ      -0.326900
     24 C21         10.0020     1.6410    -3.8470 c3         1 HAJ       0.331200
     25 O20          8.6920     2.2290    -3.7390 os         1 HAJ      -0.326900
     26 H15          1.5040    -0.0010     2.1290 ha         1 HAJ       0.152000
     27 H14          3.9650     0.0000     2.1420 ha         1 HAJ       0.144000
     28 H13          5.2290     0.0010     0.0400 ha         1 HAJ       0.159000
     29 H161         4.1000     0.8850    -5.3680 hc         1 HAJ       0.083700
     30 H162         4.1010    -0.8840    -5.3680 hc         1 HAJ       0.083700
     31 H7A         -1.3370    -0.7800    -5.5640 hn         1 HAJ       0.449800
     32 H7B         -1.7510     0.7740    -4.9190 hn         1 HAJ       0.449800
     33 H25          5.9440    -2.1320    -4.4090 ha         1 HAJ       0.139000
     34 H18          5.9500     2.1380    -4.4440 ha         1 HAJ       0.144000
     35 H24          8.3370    -2.1390    -3.8250 ha         1 HAJ       0.144000
     36 H211        10.3460     1.6960    -4.8730 h2         1 HAJ       0.070700
     37 H212        10.6770     2.1140    -3.1440 h2         1 HAJ       0.070700
@<TRIPOS>BOND
     1     1     2 1
     2     2     3 ar
     3     2     7 ar
     4     3     4 ar
     5     4     5 ar
     6     5     6 ar
     7     6     7 ar
     8     6     8 1
     9     7    15 1
    10     8     9 2
    11     9    10 1
    12     9    16 1
    13    10    11 1
    14    10    15 1
    15    11    12 2
    16    12    13 1
    17    12    14 1
    18    14    15 2
    19    16    17 1
    20    17    18 ar
    21    17    22 ar
    22    18    19 ar
    23    19    20 ar
    24    20    21 ar
    25    20    23 1
    26    21    22 ar
    27    21    25 1
    28    23    24 1
    29    24    25 1
    30     3    26 1
    31     4    27 1
    32     5    28 1
    33    16    29 1
    34    16    30 1
    35    13    31 1
    36    13    32 1
    37    18    33 1
    38    22    34 1
    39    19    35 1
    40    24    36 1
    41    24    37 1
@<TRIPOS>SUBSTRUCTURE
     1 HAJ         1 TEMP              0 ****  ****    0 ROOT
