@<TRIPOS>MOLECULE
HAK
   56    61     1     0     0
SMALL
bcc


@<TRIPOS>ATOM
      1 CAH          0.0000     0.0000     0.0000 ca         1 HAK      -0.095000
      2 CAI          1.3880     0.0000     0.0000 ca         1 HAK      -0.213200
      3 NAT          2.3340     0.0000     1.0010 na         1 HAK       0.388600
      4 CAU          2.0410     0.0000     2.4370 c3         1 HAK      -0.004400
      5 CAS          3.5880     0.0020     0.4560 cc         1 HAK      -0.254100
      6 CAR          3.5040     0.0010    -0.8850 cd         1 HAK      -0.165200
      7 CAJ          2.0810     0.0010    -1.2260 ca         1 HAK      -0.096800
      8 CAK          1.3740    -0.0010    -2.4320 ca         1 HAK      -0.049000
      9 CAL          0.0100    -0.0020    -2.4210 ca         1 HAK      -0.093000
     10 CAG         -0.6890    -0.0060    -1.2080 cp         1 HAK      -0.023000
     11 CAC         -2.1700    -0.0070    -1.2120 cp         1 HAK      -0.011300
     12 CAB         -2.8650    -0.9240    -0.4480 ca         1 HAK      -0.141000
     13 CAD         -2.8810     0.9370    -1.9940 ca         1 HAK       0.226300
     14 NAP         -2.2370     1.8370    -2.7380 nb         1 HAK      -0.509000
     15 CAO         -2.9190     2.7020    -3.4550 ca         1 HAK       0.251900
     16 CAN         -4.3150     2.6890    -3.4480 ca         1 HAK       0.303900
     17 NAM         -4.9730     1.8110    -2.7240 nb         1 HAK      -0.566000
     18 CAE         -4.2990     0.9210    -1.9850 ca         1 HAK       0.320300
     19 CAF         -4.9770    -0.0280    -1.2040 ca         1 HAK      -0.263300
     20 CAA         -4.2630    -0.9330    -0.4470 ca         1 HAK       0.089600
     21 NAQ         -4.9460    -1.8720     0.3280 nu         1 HAK      -0.234000
     22 CAV         -6.3330    -1.8360     0.4030 ca         1 HAK      -0.052700
     23 CBA         -6.9680    -1.3230     1.5290 ca         1 HAK       0.395200
     24 NAZ         -8.2810    -1.2830     1.6010 nb         1 HAK      -0.551000
     25 CAY         -9.0530    -1.7180     0.6240 ca         1 HAK       0.405200
     26 CAX         -8.5110    -2.2440    -0.5310 ca         1 HAK      -0.198300
     27 CAW         -7.1200    -2.3120    -0.6610 ca         1 HAK      -0.135600
     28 CBB         -6.4950    -2.8610    -1.8820 c          1 HAK       0.585700
     29 OBD         -5.2900    -3.0080    -1.9350 o          1 HAK      -0.621100
     30 NBC         -7.2630    -3.1980    -2.9370 ns         1 HAK      -0.016100
     31 CBE         -6.6660    -3.6390    -4.1240 ca         1 HAK      -0.339000
     32 CBF         -5.5000    -4.4010    -4.0970 ca         1 HAK       0.427700
     33 NBG         -4.9680    -4.7970    -5.2400 nb         1 HAK      -0.609500
     34 CBH         -5.5240    -4.4810    -6.3920 ca         1 HAK       0.615900
     35 NBI         -6.6270    -3.7620    -6.4600 nb         1 HAK      -0.609500
     36 CBJ         -7.2240    -3.3320    -5.3620 ca         1 HAK       0.427700
     37 H1          -0.5440    -0.0030     0.9370 ha         1 HAK       0.102000
     38 H2           2.9670     0.0630     2.9950 h1         1 HAK       0.015700
     39 H3           1.5220    -0.9130     2.7000 h1         1 HAK       0.015700
     40 H4           1.4160     0.8520     2.6780 h1         1 HAK       0.015700
     41 H5           4.5120     0.0040     1.0210 h4         1 HAK       0.138000
     42 H6           4.3340     0.0020    -1.5820 ha         1 HAK       0.128000
     43 H7           1.9090     0.0020    -3.3740 ha         1 HAK       0.101000
     44 H8          -0.5350    -0.0070    -3.3570 ha         1 HAK       0.115000
     45 H9          -2.3230    -1.6430     0.1540 ha         1 HAK       0.117000
     46 H10         -2.3930     3.4330    -4.0570 h4         1 HAK      -0.012900
     47 H11         -4.8610     3.4090    -4.0440 h4         1 HAK      -0.016900
     48 H12         -6.0600    -0.0470    -1.1930 ha         1 HAK       0.127000
     49 H13         -4.4350    -2.5560     0.8490 hn         1 HAK       0.294800
     50 H14         -6.3750    -0.9530     2.3570 h4         1 HAK      -0.008900
     51 H15        -10.1290    -1.6630     0.7310 h4         1 HAK      -0.014900
     52 H16         -9.1550    -2.5990    -1.3270 ha         1 HAK       0.112000
     53 H17         -8.2600    -3.1640    -2.8610 hn         1 HAK       0.174500
     54 H18         -5.0370    -4.6650    -3.1540 h4         1 HAK       0.004600
     55 H19         -5.0610    -4.8200    -7.3110 h5         1 HAK       0.002100
     56 H20         -8.1300    -2.7410    -5.4250 h4         1 HAK       0.004600
@<TRIPOS>BOND
     1     1     2 ar  
     2     1    10 ar  
     3     1    37 1   
     4     2     3 1   
     5     2     7 ar  
     6     3     4 1   
     7     3     5 1   
     8     4    38 1   
     9     4    39 1   
    10     4    40 1   
    11     5     6 2   
    12     5    41 1   
    13     6     7 1   
    14     6    42 1   
    15     7     8 ar  
    16     8     9 ar  
    17     8    43 1   
    18     9    10 ar  
    19     9    44 1   
    20    10    11 1   
    21    11    12 ar  
    22    11    13 ar  
    23    12    20 ar  
    24    12    45 1   
    25    13    14 ar  
    26    13    18 ar  
    27    14    15 ar  
    28    15    16 ar  
    29    15    46 1   
    30    16    17 ar  
    31    16    47 1   
    32    17    18 ar  
    33    18    19 ar  
    34    19    20 ar  
    35    19    48 1   
    36    20    21 1   
    37    21    22 1   
    38    21    49 1   
    39    22    23 ar  
    40    22    27 ar  
    41    23    24 ar  
    42    23    50 1   
    43    24    25 ar  
    44    25    26 ar  
    45    25    51 1   
    46    26    27 ar  
    47    26    52 1   
    48    27    28 1   
    49    28    29 2   
    50    28    30 1   
    51    30    31 1   
    52    30    53 1   
    53    31    32 ar  
    54    31    36 ar  
    55    32    33 ar  
    56    32    54 1   
    57    33    34 ar  
    58    34    35 ar  
    59    34    55 1   
    60    35    36 ar  
    61    36    56 1   
@<TRIPOS>SUBSTRUCTURE
     1 HAK         1 TEMP              0 ****  ****    0 ROOT
