@<TRIPOS>MOLECULE
molecule
   56    61     1     0     0
SMALL
bcc


@<TRIPOS>ATOM
      1 CAH          0.0000     0.0000     0.0000 ca         1 HAK      -0.128000
      2 CAI          1.3880     0.0000     0.0000 ca         1 HAK      -0.042200
      3 NAT          2.3340     0.0000     1.0010 na         1 HAK      -0.076400
      4 CAU          2.0410     0.0000     2.4370 c3         1 HAK       0.041600
      5 CAS          3.5880     0.0020     0.4560 cc         1 HAK      -0.098100
      6 CAR          3.5040     0.0010    -0.8850 cd         1 HAK      -0.203200
      7 CAJ          2.0810     0.0010    -1.2260 ca         1 HAK      -0.094800
      8 CAK          1.3740    -0.0010    -2.4320 ca         1 HAK      -0.087000
      9 CAL          0.0100    -0.0020    -2.4210 ca         1 HAK      -0.110000
     10 CAG         -0.6890    -0.0060    -1.2080 cp         1 HAK      -0.023000
     11 CAC         -2.1700    -0.0070    -1.2120 cp         1 HAK      -0.018300
     12 CAB         -2.8650    -0.9240    -0.4480 ca         1 HAK      -0.159000
     13 CAD         -2.8810     0.9370    -1.9940 ca         1 HAK       0.269300
     14 NAP         -2.2370     1.8370    -2.7380 nb         1 HAK      -0.621000
     15 CAO         -2.9190     2.7020    -3.4550 ca         1 HAK       0.275900
     16 CAN         -4.3150     2.6890    -3.4480 ca         1 HAK       0.313900
     17 NAM         -4.9730     1.8110    -2.7240 nb         1 HAK      -0.660000
     18 CAE         -4.2990     0.9210    -1.9850 ca         1 HAK       0.348300
     19 CAF         -4.9770    -0.0280    -1.2040 ca         1 HAK      -0.263300
     20 CAA         -4.2630    -0.9330    -0.4470 ca         1 HAK       0.230600
     21 NAQ         -4.9460    -1.8720     0.3280 nu         1 HAK      -0.688000
     22 CAV         -6.3330    -1.8360     0.4030 ca         1 HAK       0.080300
     23 CBA         -6.9680    -1.3230     1.5290 ca         1 HAK       0.412200
     24 NAZ         -8.2810    -1.2830     1.6010 nb         1 HAK      -0.664000
     25 CAY         -9.0530    -1.7180     0.6240 ca         1 HAK       0.416200
     26 CAX         -8.5110    -2.2440    -0.5310 ca         1 HAK      -0.227300
     27 CAW         -7.1200    -2.3120    -0.6610 ca         1 HAK      -0.124600
     28 CBB         -6.4950    -2.8610    -1.8820 c          1 HAK       0.676700
     29 OBD         -5.2900    -3.0080    -1.9350 o          1 HAK      -0.570100
     30 NBC         -7.2630    -3.1980    -2.9370 ns         1 HAK      -0.468100
     31 CBE         -6.6660    -3.6390    -4.1240 ca         1 HAK      -0.198000
     32 CBF         -5.5000    -4.4010    -4.0970 ca         1 HAK       0.443700
     33 NBG         -4.9680    -4.7970    -5.2400 nb         1 HAK      -0.719500
     34 CBH         -5.5240    -4.4810    -6.3920 ca         1 HAK       0.660900
     35 NBI         -6.6270    -3.7620    -6.4600 nb         1 HAK      -0.719500
     36 CBJ         -7.2240    -3.3320    -5.3620 ca         1 HAK       0.443700
     37 H1          -0.5440    -0.0030     0.9370 ha         1 HAK       0.125000
     38 H2           2.9670     0.0630     2.9950 h1         1 HAK       0.046700
     39 H3           1.5220    -0.9130     2.7000 h1         1 HAK       0.046700
     40 H4           1.4160     0.8520     2.6780 h1         1 HAK       0.046700
     41 H5           4.5120     0.0040     1.0210 h4         1 HAK       0.163000
     42 H6           4.3340     0.0020    -1.5820 ha         1 HAK       0.154000
     43 H7           1.9090     0.0020    -3.3740 ha         1 HAK       0.132000
     44 H8          -0.5350    -0.0070    -3.3570 ha         1 HAK       0.142000
     45 H9          -2.3230    -1.6430     0.1540 ha         1 HAK       0.142000
     46 H10         -2.3930     3.4330    -4.0570 h4         1 HAK       0.029100
     47 H11         -4.8610     3.4090    -4.0440 h4         1 HAK       0.027100
     48 H12         -6.0600    -0.0470    -1.1930 ha         1 HAK       0.148000
     49 H13         -4.4350    -2.5560     0.8490 hn         1 HAK       0.458800
     50 H14         -6.3750    -0.9530     2.3570 h4         1 HAK       0.039100
     51 H15        -10.1290    -1.6630     0.7310 h4         1 HAK       0.032100
     52 H16         -9.1550    -2.5990    -1.3270 ha         1 HAK       0.135000
     53 H17         -8.2600    -3.1640    -2.8610 hn         1 HAK       0.328500
     54 H18         -5.0370    -4.6650    -3.1540 h4         1 HAK       0.045600
     55 H19         -5.0610    -4.8200    -7.3110 h5         1 HAK       0.062100
     56 H20         -8.1300    -2.7410    -5.4250 h4         1 HAK       0.045600
@<TRIPOS>BOND
     1    25    24 ar
     2    25    26 ar
     3    24    23 ar
     4    23    22 ar
     5    26    27 ar
     6    22    27 ar
     7    22    21 1
     8    27    28 1
     9    21    20 1
    10    30    28 1
    11    30    31 1
    12    28    29 2
    13    19    20 ar
    14    19    18 ar
    15    17    18 ar
    16    17    16 ar
    17    20    12 ar
    18    18    13 ar
    19    16    15 ar
    20    12    11 ar
    21    31    32 ar
    22    31    36 ar
    23    13    11 ar
    24    13    14 ar
    25    15    14 ar
    26    11    10 1
    27     9    10 ar
    28     9     8 ar
    29    32    33 ar
    30    36    35 ar
    31    10     1 ar
    32     8     7 ar
    33    33    34 ar
    34    35    34 ar
    35     1     2 ar
    36     7     2 ar
    37     7     6 1
    38     2     3 1
    39     6     5 2
    40     3     5 1
    41     3     4 1
    42     1    37 1
    43     4    38 1
    44     4    39 1
    45     4    40 1
    46     5    41 1
    47     6    42 1
    48     8    43 1
    49     9    44 1
    50    12    45 1
    51    15    46 1
    52    16    47 1
    53    19    48 1
    54    21    49 1
    55    23    50 1
    56    25    51 1
    57    26    52 1
    58    30    53 1
    59    32    54 1
    60    34    55 1
    61    36    56 1
@<TRIPOS>SUBSTRUCTURE
     1 HAK         1 TEMP              0 ****  ****    0 ROOT
