@<TRIPOS>MOLECULE
molecule
   60    61     1     0     0
SMALL
bcc


@<TRIPOS>ATOM
      1 CP1          0.0000     0.0000     0.0000 ca         1 HAL      -0.070300
      2 CP2          1.3820     0.0000     0.0000 ca         1 HAL      -0.121500
      3 CP3          2.0740     0.0000     1.1970 ca         1 HAL      -0.130500
      4 CP4          1.3830     0.0020     2.3950 ca         1 HAL      -0.139000
      5 CP5          0.0000     0.0040     2.3940 ca         1 HAL      -0.130500
      6 CP6         -0.6910     0.0070     1.1980 ca         1 HAL      -0.121500
      7 C1          -0.7530    -0.0010    -1.3050 c3         1 HAL      -0.058100
      8 C2          -1.0090    -1.4440    -1.7450 c3         1 HAL       0.122000
      9 N1          -1.7420    -1.4450    -3.0140 ns         1 HAL      -0.610900
     10 C3          -2.0790    -2.6120    -3.5970 c          1 HAL       0.647100
     11 O1          -1.7750    -3.6620    -3.0700 o          1 HAL      -0.589100
     12 C4          -2.8320    -2.6140    -4.9020 c3         1 HAL       0.084400
     13 O2          -3.0710    -3.9610    -5.3120 os         1 HAL      -0.510200
     14 P           -3.8750    -3.8870    -6.7060 p5         1 HAL       1.116600
     15 O3          -3.1130    -3.0650    -7.6720 o          1 HAL      -0.806500
     16 O4          -5.3190    -3.2210    -6.4560 o          1 HAL      -0.806500
     17 C5          -4.0890    -5.5690    -7.3730 c3         1 HAL      -0.038500
     18 C6          -4.7660    -6.4530    -6.3240 c3         1 HAL      -0.041100
     19 CR1         -3.9090    -6.5090    -5.0860 ca         1 HAL      -0.085300
     20 CR2         -4.0860    -5.5780    -4.0800 ca         1 HAL      -0.092500
     21 CR3         -3.2990    -5.6290    -2.9450 ca         1 HAL      -0.129500
     22 CR4         -2.3370    -6.6130    -2.8150 ca         1 HAL      -0.131000
     23 CR5         -2.1610    -7.5450    -3.8200 ca         1 HAL      -0.129500
     24 CR6         -2.9510    -7.4960    -4.9540 ca         1 HAL      -0.092500
     25 N2          -4.9220    -5.5150    -8.5780 ns         1 HAL      -0.553900
     26 C7          -4.3590    -5.6550    -9.7940 c          1 HAL       0.658100
     27 O5          -3.1630    -5.8270    -9.8920 o          1 HAL      -0.611100
     28 C8          -5.2170    -5.5990   -11.0320 c3         1 HAL      -0.160400
     29 C9          -4.3380    -5.7850   -12.2700 c3         1 HAL      -0.049400
     30 C10         -5.2070    -5.7270   -13.5280 c3         1 HAL      -0.185400
     31 C11         -4.3410    -5.9100   -14.7460 c          1 HAL       0.892600
     32 O6          -4.8930    -5.8950   -15.9700 o          1 HAL      -0.865300
     33 O7          -3.1500    -6.0700   -14.6230 o          1 HAL      -0.865300
     34 HP2          1.9240    -0.0040    -0.9380 ha         1 HAL       0.134000
     35 HP3          3.1570    -0.0000     1.1970 ha         1 HAL       0.123000
     36 HP4          1.9250     0.0010     3.3330 ha         1 HAL       0.120000
     37 HP5         -0.5420     0.0080     3.3320 ha         1 HAL       0.123000
     38 HP6         -1.7740     0.0080     1.1980 ha         1 HAL       0.134000
     39 HC11        -1.7000     0.5100    -1.1760 hc         1 HAL       0.051700
     40 HC12        -0.1680     0.5080    -2.0610 hc         1 HAL       0.051700
     41 HC21        -0.0630    -1.9550    -1.8740 h1         1 HAL       0.049700
     42 HC22        -1.5950    -1.9530    -0.9890 h1         1 HAL       0.049700
     43 HN1         -1.9820    -0.5780    -3.4540 hn         1 HAL       0.309500
     44 HC41        -3.7790    -2.1030    -4.7730 h1         1 HAL       0.072700
     45 HC42        -2.2470    -2.1040    -5.6570 h1         1 HAL       0.072700
     46 HC5         -3.1200    -5.9840    -7.6240 h1         1 HAL       0.097700
     47 HC61        -5.7350    -6.0380    -6.0730 hc         1 HAL       0.041700
     48 HC62        -4.8930    -7.4530    -6.7210 hc         1 HAL       0.041700
     49 HR2         -4.8880    -4.8540    -4.1480 ha         1 HAL       0.130500
     50 HR3         -3.4800    -4.9390    -2.1300 ha         1 HAL       0.107500
     51 HR4         -1.7410    -6.6710    -1.9120 ha         1 HAL       0.101000
     52 HR5         -1.4330    -8.3390    -3.7010 ha         1 HAL       0.107500
     53 HR6         -2.7250    -8.3760    -5.5430 ha         1 HAL       0.130500
     54 HN2         -5.9110    -5.3810    -8.4960 hn         1 HAL       0.310500
     55 HC81        -5.7140    -4.6380   -11.0840 hc         1 HAL       0.041200
     56 HC82        -5.9580    -6.3870   -10.9950 hc         1 HAL       0.041200
     57 HC91        -3.8410    -6.7460   -12.2190 hc         1 HAL       0.061200
     58 HC92        -3.5960    -4.9960   -12.3080 hc         1 HAL       0.061200
     59 H101        -5.9490    -6.5160   -13.4900 hc         1 HAL       0.020700
     60 H102        -5.7050    -4.7660   -13.5790 hc         1 HAL       0.020700
@<TRIPOS>BOND
     1     1     2 ar
     2     1     6 ar
     3     1     7 1
     4     2     3 ar
     5     2    34 1
     6     3     4 ar
     7     3    35 1
     8     4     5 ar
     9     4    36 1
    10     5     6 ar
    11     5    37 1
    12     6    38 1
    13     7     8 1
    14     7    39 1
    15     7    40 1
    16     8     9 1
    17     8    41 1
    18     8    42 1
    19     9    10 1
    20     9    43 1
    21    10    11 2
    22    10    12 1
    23    12    13 1
    24    12    44 1
    25    12    45 1
    26    13    14 1
    27    14    15 1
    28    14    16 1
    29    14    17 1
    30    17    18 1
    31    17    25 1
    32    17    46 1
    33    18    19 1
    34    18    47 1
    35    18    48 1
    36    19    20 ar
    37    19    24 ar
    38    20    21 ar
    39    20    49 1
    40    21    22 ar
    41    21    50 1
    42    22    23 ar
    43    22    51 1
    44    23    24 ar
    45    23    52 1
    46    24    53 1
    47    25    26 1
    48    25    54 1
    49    26    27 2
    50    26    28 1
    51    28    29 1
    52    28    55 1
    53    28    56 1
    54    29    30 1
    55    29    57 1
    56    29    58 1
    57    30    31 1
    58    30    59 1
    59    30    60 1
    60    31    32 1
    61    31    33 1
@<TRIPOS>SUBSTRUCTURE
     1 HAL         1 TEMP              0 ****  ****    0 ROOT
