@<TRIPOS>MOLECULE
molecule
   54    57     1     0     0
SMALL
bcc


@<TRIPOS>ATOM
      1 P            0.0000     0.0000     0.0000 p5         1 HAM       1.261800
      2 O1P          1.5450     0.0000     0.0000 o          1 HAM      -0.766000
      3 O2P         -0.5150     0.0000     1.4570 o          1 HAM      -0.766000
      4 O3P         -0.5360    -1.3160    -0.7580 os         1 HAM      -0.499500
      5 O5'         -0.5370     1.3140    -0.7600 os         1 HAM      -0.532200
      6 C5'         -0.1300     2.4380     0.0220 c3         1 HAM       0.161400
      7 C4'         -0.6100     3.7260    -0.6480 c3         1 HAM       0.131100
      8 O4'         -2.0530     3.7970    -0.6250 os         1 HAM      -0.399600
      9 C3'         -0.1410     4.9600     0.1540 c3         1 HAM       0.089100
     10 O3'          1.0360     5.5200    -0.4310 oh         1 HAM      -0.573800
     11 C2'         -1.3240     5.9520     0.0470 c3         1 HAM       0.085100
     12 O2'         -0.9120     7.1550    -0.6060 oh         1 HAM      -0.564800
     13 C1'         -2.3680     5.1960    -0.8050 c3         1 HAM       0.252800
     14 N9          -3.7220     5.4790    -0.3240 na         1 HAM      -0.250000
     15 C8          -4.4280     4.7400     0.5780 cc         1 HAM       0.440700
     16 N7          -5.5960     5.2800     0.7770 nd         1 HAM      -0.599100
     17 C5          -5.7090     6.4000     0.0240 ca         1 HAM      -0.203200
     18 C6          -6.7160     7.3600    -0.1740 ca         1 HAM       0.780200
     19 N6          -7.9200     7.2720     0.5020 nv         1 HAM      -1.000500
     20 N1          -6.4830     8.3570    -1.0220 nb         1 HAM      -0.829000
     21 C2          -5.3370     8.4480    -1.6720 ca         1 HAM       0.727900
     22 N3          -4.3680     7.5690    -1.5220 nb         1 HAM      -0.776000
     23 C4          -4.5110     6.5390    -0.6960 ca         1 HAM       0.469800
     24 C           -0.2980    -2.5320    -0.2430 c          1 HAM       0.687100
     25 O            0.3210    -2.6400     0.7890 o          1 HAM      -0.495000
     26 CA          -0.8000    -3.7630    -0.9530 c3         1 HAM       0.038500
     27 N           -0.0400    -4.9350    -0.4990 nz         1 HAM      -0.801600
     28 CB          -2.2830    -3.9630    -0.6390 c3         1 HAM      -0.097700
     29 CG          -2.8150    -5.1200    -1.4430 cc         1 HAM       0.250600
     30 CD2         -3.4440    -6.2050    -0.9510 cd         1 HAM      -0.257600
     31 ND1         -2.7520    -5.2490    -2.7770 nc         1 HAM      -0.699000
     32 CE1         -3.3100    -6.3760    -3.1280 cd         1 HAM       0.418400
     33 NE2         -3.7580    -7.0010    -2.0190 na         1 HAM      -0.287900
     34 H5'1         0.9510     2.4530     0.0980 h1         1 HAM       0.070200
     35 H5'2        -0.5610     2.3640     1.0130 h1         1 HAM       0.070200
     36 H4'         -0.2490     3.7840    -1.6680 h1         1 HAM       0.084700
     37 H3'          0.0330     4.6930     1.1890 h1         1 HAM       0.054700
     38 HO3'         1.6900     5.6470     0.2370 ho         1 HAM       0.403000
     39 H2'         -1.7260     6.1660     1.0300 h1         1 HAM       0.053700
     40 HO2'        -0.7450     7.8210     0.0400 ho         1 HAM       0.404000
     41 H1'         -2.2680     5.4700    -1.8480 h2         1 HAM       0.107700
     42 H8          -4.0710     3.8370     1.0570 h5         1 HAM       0.095800
     43 HN61        -7.9670     6.7960     1.3810 hn         1 HAM       0.446300
     44 HN62        -8.7520     7.6520     0.0950 hn         1 HAM       0.446300
     45 H2          -5.1890     9.2770    -2.3540 h5         1 HAM       0.059100
     46 HA          -0.6710    -3.6410    -2.0220 hx         1 HAM       0.147700
     47 HN1          0.8250    -4.6360    -0.0940 hn         1 HAM       0.456133
     48 HN2         -0.5730    -5.4340     0.1850 hn         1 HAM       0.456133
     49 HN3          0.1470    -5.5340    -1.2790 hn         1 HAM       0.456133
     50 HB1         -2.8310    -3.0640    -0.8940 hc         1 HAM       0.102700
     51 HB2         -2.4030    -4.1720     0.4180 hc         1 HAM       0.102700
     52 HD2         -3.6600    -6.4090     0.0910 h4         1 HAM       0.184000
     53 HE1         -3.4030    -6.7450    -4.1420 h5         1 HAM       0.081100
     54 HE2         -4.2300    -7.8830    -1.9840 hn         1 HAM       0.314700
@<TRIPOS>BOND
     1     1     2 1
     2     1     3 1
     3     1     4 1
     4     1     5 1
     5     4    24 1
     6     5     6 1
     7     6     7 1
     8     6    34 1
     9     6    35 1
    10     7     8 1
    11     7     9 1
    12     7    36 1
    13     8    13 1
    14     9    10 1
    15     9    11 1
    16     9    37 1
    17    10    38 1
    18    11    12 1
    19    11    13 1
    20    11    39 1
    21    12    40 1
    22    13    14 1
    23    13    41 1
    24    14    15 1
    25    14    23 1
    26    15    16 2
    27    15    42 1
    28    16    17 1
    29    17    18 ar
    30    17    23 ar
    31    18    19 1
    32    18    20 ar
    33    19    43 1
    34    19    44 1
    35    20    21 ar
    36    21    22 ar
    37    21    45 1
    38    22    23 ar
    39    24    25 2
    40    24    26 1
    41    26    27 1
    42    26    28 1
    43    26    46 1
    44    27    47 1
    45    27    48 1
    46    27    49 1
    47    28    29 1
    48    28    50 1
    49    28    51 1
    50    29    30 2
    51    29    31 1
    52    30    33 1
    53    30    52 1
    54    31    32 2
    55    32    33 1
    56    32    53 1
    57    33    54 1
@<TRIPOS>SUBSTRUCTURE
     1 HAM         1 TEMP              0 ****  ****    0 ROOT
