@<TRIPOS>MOLECULE
HAN
   37    38     1     0     0
SMALL
bcc


@<TRIPOS>ATOM
      1 N1           0.0000     0.0000     0.0000 na         1 HAN       0.270700
      2 C2           1.3650     0.0000     0.0000 cc         1 HAN       0.348700
      3 N3           1.8100     0.0000     1.2310 nd         1 HAN      -0.632100
      4 C4           0.6670    -0.0000     3.4890 ca         1 HAN      -0.069000
      5 C5          -0.5720    -0.0010     4.0900 ca         1 HAN      -0.105300
      6 C6          -1.7270    -0.0060     3.3220 ca         1 HAN      -0.107300
      7 C7          -1.6490    -0.0000     1.9440 ca         1 HAN      -0.069000
      8 C9           0.7610    -0.0010     2.0960 ca         1 HAN       0.103400
      9 C8          -0.4120    -0.0000     1.3230 ca         1 HAN      -0.256200
     10 C10         -0.6740    -0.0010     5.5940 c3         1 HAN       0.068200
     11 C11         -3.0740    -0.0070     3.9960 c3         1 HAN       0.069200
     12 N12          2.1570    -0.0000    -1.1290 nv         1 HAN      -0.486800
     13 C13         -0.8690     0.0010    -1.1790 c3         1 HAN      -0.037700
     14 C14         -1.1720    -1.4400    -1.5910 c3         1 HAN      -0.059400
     15 C15         -2.0780    -1.4400    -2.8230 c3         1 HAN      -0.011400
     16 C16         -2.3800    -2.8820    -3.2350 c3         1 HAN      -0.134400
     17 C17         -3.2730    -2.8810    -4.4480 c          1 HAN       0.979600
     18 O18         -3.6320    -1.8360    -4.9330 o          1 HAN      -0.903300
     19 O19         -3.6710    -4.0440    -4.9890 o          1 HAN      -0.903300
     20 H4           1.5650     0.0040     4.0950 ha         1 HAN       0.106000
     21 H7          -2.5550    -0.0040     1.3490 ha         1 HAN       0.109000
     22 H101        -1.2040    -0.8880     5.9200 hc         1 HAN       0.001367
     23 H102         0.3210     0.0030     6.0230 hc         1 HAN       0.001367
     24 H103        -1.2110     0.8810     5.9190 hc         1 HAN       0.001367
     25 H111        -3.8540    -0.0130     3.2440 hc         1 HAN       0.003033
     26 H112        -3.1660    -0.8890     4.6190 hc         1 HAN       0.003033
     27 H113        -3.1710     0.8800     4.6100 hc         1 HAN       0.003033
     28 H121         3.1520    -0.0550    -1.0420 hn         1 HAN       0.275800
     29 H122         1.7370     0.0760    -2.0350 hn         1 HAN       0.275800
     30 H131        -1.7950     0.5120    -0.9440 h1         1 HAN       0.031700
     31 H132        -0.3710     0.5130    -1.9940 h1         1 HAN       0.031700
     32 H141        -1.6700    -1.9520    -0.7760 hc         1 HAN       0.017700
     33 H142        -0.2450    -1.9510    -1.8250 hc         1 HAN       0.017700
     34 H151        -1.5800    -0.9290    -3.6370 hc         1 HAN       0.021200
     35 H152        -3.0040    -0.9300    -2.5890 hc         1 HAN       0.021200
     36 H161        -1.4540    -3.3930    -3.4690 hc         1 HAN       0.006700
     37 H162        -2.8780    -3.3940    -2.4200 hc         1 HAN       0.006700
@<TRIPOS>BOND
     1     1     2 1   
     2     1     9 1   
     3     1    13 1   
     4     2     3 2   
     5     2    12 1   
     6     3     8 1   
     7     4     5 ar  
     8     4     8 ar  
     9     4    20 1   
    10     5     6 ar  
    11     5    10 1   
    12     6     7 ar  
    13     6    11 1   
    14     7     9 ar  
    15     7    21 1   
    16     8     9 ar  
    17    10    22 1   
    18    10    23 1   
    19    10    24 1   
    20    11    25 1   
    21    11    26 1   
    22    11    27 1   
    23    12    28 1   
    24    12    29 1   
    25    13    14 1   
    26    13    30 1   
    27    13    31 1   
    28    14    15 1   
    29    14    32 1   
    30    14    33 1   
    31    15    16 1   
    32    15    34 1   
    33    15    35 1   
    34    16    17 1   
    35    16    36 1   
    36    16    37 1   
    37    17    18 1   
    38    17    19 1   
@<TRIPOS>SUBSTRUCTURE
     1 HAN         1 TEMP              0 ****  ****    0 ROOT
