@<TRIPOS>MOLECULE
HAP
   52    52     1     0     0
SMALL
bcc


@<TRIPOS>ATOM
      1 C1           0.0000     0.0000     0.0000 c          1 HAP       0.571100
      2 C2           1.5070     0.0000     0.0000 c3         1 HAP      -0.080400
      3 C3           2.0170     0.0000     1.4410 c3         1 HAP      -0.106700
      4 C4           1.5070    -1.2500     2.1620 c3         1 HAP      -0.013400
      5 C5           0.7450    -0.8360     3.4220 c3         1 HAP      -0.068700
      6 C6           0.1190    -2.0730     4.0690 c3         1 HAP       0.004900
      7 C7           1.7110    -0.1780     4.4100 c3         1 HAP       0.004900
      8 C8           3.5240    -0.0000     1.4410 c          1 HAP       0.578100
      9 C9           5.6570     1.0430     1.9850 c3         1 HAP      -0.051300
     10 C10          6.2790     0.2680     3.1170 c          1 HAP       0.561100
     11 C11          6.3060    -0.4810     5.4360 c3         1 HAP       0.086300
     12 C12          6.1030     2.5030     2.0630 c3         1 HAP       0.027900
     13 C13          5.4800     3.2790     0.9310 ca         1 HAP      -0.099300
     14 C14          4.2500     3.8860     1.1020 ca         1 HAP      -0.096500
     15 C15          3.6800     4.5980     0.0630 ca         1 HAP      -0.096000
     16 C16          4.3400     4.7030    -1.1470 ca         1 HAP      -0.101000
     17 C17          5.5700     4.0970    -1.3170 ca         1 HAP      -0.096000
     18 C18          6.1430     3.3890    -0.2770 ca         1 HAP      -0.096500
     19 N1          -0.6730     0.0010    -1.1670 ns         1 HAP      -0.056400
     20 N2           4.1970     0.9700     2.0870 ns         1 HAP      -0.211900
     21 O1          -2.0890     0.0010    -1.1680 oh         1 HAP      -0.439100
     22 O2          -0.6060    -0.0010     1.0500 o          1 HAP      -0.624100
     23 O3           4.1290    -0.8760     0.8600 o          1 HAP      -0.632100
     24 O4           7.3130    -0.3410     2.9400 o          1 HAP      -0.626100
     25 H21          1.8680     0.8840    -0.5110 hc         1 HAP       0.039200
     26 H22          1.8680    -0.8850    -0.5110 hc         1 HAP       0.039200
     27 H3           1.6560     0.8840     1.9520 hc         1 HAP       0.047700
     28 H41          2.3470    -1.8760     2.4380 hc         1 HAP       0.032200
     29 H42          0.8460    -1.8010     1.5050 hc         1 HAP       0.032200
     30 H5          -0.0360    -0.1330     3.1570 hc         1 HAP       0.064700
     31 H61         -0.4630    -1.7740     4.9320 hc         1 HAP      -0.000133
     32 H62          0.9020    -2.7540     4.3800 hc         1 HAP      -0.000133
     33 H63         -0.5260    -2.5680     3.3530 hc         1 HAP      -0.000133
     34 H71          1.2330    -0.0900     5.3780 hc         1 HAP      -0.000133
     35 H72          1.9800     0.8080     4.0490 hc         1 HAP      -0.000133
     36 H73          2.6030    -0.7850     4.5010 hc         1 HAP      -0.000133
     37 H9           5.9740     0.6190     1.0400 h1         1 HAP       0.091700
     38 H111         6.3660    -1.5340     5.1870 h1         1 HAP       0.010700
     39 H112         7.3030    -0.0940     5.6100 h1         1 HAP       0.010700
     40 H113         5.7090    -0.3550     6.3300 h1         1 HAP       0.010700
     41 H121         5.7870     2.9280     3.0080 hc         1 HAP       0.029700
     42 H122         7.1820     2.5560     1.9860 hc         1 HAP       0.029700
     43 H14          3.7330     3.8040     2.0500 ha         1 HAP       0.106000
     44 H15          2.7160     5.0730     0.1980 ha         1 HAP       0.104500
     45 H16          3.8930     5.2590    -1.9620 ha         1 HAP       0.103000
     46 H17          6.0880     4.1810    -2.2650 ha         1 HAP       0.104500
     47 H18          7.1070     2.9140    -0.4120 ha         1 HAP       0.106000
     48 HN1         -0.1730     0.0260    -2.0340 hn         1 HAP       0.156500
     49 HN2          3.7000     1.6440     2.6360 hn         1 HAP       0.181500
     50 HN3          4.8460     0.7710     4.4800 hn         1 HAP       0.167500
     51 HO1         -2.4040    -0.0070    -2.0570 ho         1 HAP       0.393000
     52 N3           5.6860     0.2480     4.3270 ns         1 HAP      -0.197900
@<TRIPOS>BOND
     1     1     2 1   
     2     1    19 1   
     3     1    22 2   
     4     2     3 1   
     5     2    25 1   
     6     2    26 1   
     7     3     4 1   
     8     3     8 1   
     9     3    27 1   
    10     4     5 1   
    11     4    28 1   
    12     4    29 1   
    13     5     6 1   
    14     5     7 1   
    15     5    30 1   
    16     6    31 1   
    17     6    32 1   
    18     6    33 1   
    19     7    34 1   
    20     7    35 1   
    21     7    36 1   
    22     8    20 1   
    23     8    23 2   
    24     9    10 1   
    25     9    12 1   
    26     9    20 1   
    27     9    37 1   
    28    10    24 2   
    29    10    52 1   
    30    11    38 1   
    31    11    39 1   
    32    11    40 1   
    33    11    52 1   
    34    12    13 1   
    35    12    41 1   
    36    12    42 1   
    37    13    14 ar  
    38    13    18 ar  
    39    14    15 ar  
    40    14    43 1   
    41    15    16 ar  
    42    15    44 1   
    43    16    17 ar  
    44    16    45 1   
    45    17    18 ar  
    46    17    46 1   
    47    18    47 1   
    48    19    21 1   
    49    19    48 1   
    50    20    49 1   
    51    21    51 1   
    52    50    52 1   
@<TRIPOS>SUBSTRUCTURE
     1 HAP         1 TEMP              0 ****  ****    0 ROOT
