@<TRIPOS>MOLECULE
HAT
   63    68     1     0     0
SMALL
bcc


@<TRIPOS>ATOM
      1 CBF          0.0000     0.0000     0.0000 c3         1 HAT      -0.037400
      2 CBG          1.5490     0.0000     0.0000 c3         1 HAT       0.154800
      3 NBH          1.8890     0.0000     1.4450 n3         1 HAT      -0.550600
      4 CBJ          3.2620    -0.4750     1.6640 c3         1 HAT       0.189100
      5 CBI          0.9080    -0.8990     2.0910 c3         1 HAT       0.131800
      6 CBE         -0.3450    -0.9160     1.1970 c3         1 HAT       0.010700
      7 NBD         -1.4980    -0.3840     1.9290 ns         1 HAT      -0.180900
      8 CBB         -2.2760    -1.2110     2.6550 c          1 HAT       0.593700
      9 OBC         -2.0210    -2.3980     2.7030 o          1 HAT      -0.640100
     10 CAW         -3.4380    -0.6740     3.3920 ca         1 HAT      -0.122600
     11 CAX         -3.7260     0.6950     3.3840 ca         1 HAT      -0.200300
     12 CAY         -4.8250     1.1530     4.0820 ca         1 HAT       0.404200
     13 NAZ         -5.6010     0.3240     4.7520 nb         1 HAT      -0.557000
     14 CBA         -5.3750    -0.9720     4.7910 ca         1 HAT       0.394200
     15 CAV         -4.2910    -1.5260     4.1180 ca         1 HAT      -0.060700
     16 NAQ         -4.0570    -2.8950     4.1570 nu         1 HAT      -0.232000
     17 CAA         -3.1050    -3.4160     5.0330 ca         1 HAT       0.093600
     18 CAB         -2.7940    -4.7780     4.9850 ca         1 HAT      -0.136000
     19 CAF         -2.4790    -2.5800     5.9340 ca         1 HAT      -0.262300
     20 CAE         -1.5200    -3.0950     6.8210 ca         1 HAT       0.320300
     21 NAM         -0.9020    -2.3000     7.7020 nb         1 HAT      -0.562000
     22 CAN         -0.0080    -2.8080     8.5210 ca         1 HAT       0.300900
     23 CAO          0.3030    -4.1670     8.4820 ca         1 HAT       0.249900
     24 NAP         -0.2920    -4.9670     7.6230 nb         1 HAT      -0.512000
     25 CAD         -1.2020    -4.4760     6.7820 ca         1 HAT       0.225300
     26 CAC         -1.8550    -5.3150     5.8450 cp         1 HAT      -0.017300
     27 CAG         -1.5330    -6.7590     5.7860 cp         1 HAT      -0.019000
     28 CAH         -2.5590    -7.6980     5.8010 ca         1 HAT      -0.095000
     29 CAI         -2.2530    -9.0500     5.7470 ca         1 HAT      -0.212200
     30 NAT         -3.0210   -10.1960     5.7440 na         1 HAT       0.386600
     31 CAU         -4.4840   -10.2270     5.8060 c3         1 HAT      -0.004400
     32 CAS         -2.2130   -11.2970     5.6750 cc         1 HAT      -0.253100
     33 CAR         -0.9250   -10.9180     5.6310 cd         1 HAT      -0.166200
     34 CAJ         -0.9060    -9.4550     5.6760 ca         1 HAT      -0.096800
     35 CAK          0.1130    -8.4980     5.6620 ca         1 HAT      -0.051000
     36 CAL         -0.1970    -7.1720     5.7110 ca         1 HAT      -0.093000
     37 H1          -0.3820    -0.4180    -0.9240 hc         1 HAT       0.024700
     38 H2          -0.3820     1.0010     0.1630 hc         1 HAT       0.024700
     39 H3           1.9300     0.8930    -0.4800 h1         1 HAT       0.016200
     40 H4           1.9300    -0.8930    -0.4810 h1         1 HAT       0.016200
     41 H6           3.3680    -1.4740     1.2580 h1         1 HAT       0.002367
     42 H7           3.4730    -0.4940     2.7260 h1         1 HAT       0.002367
     43 H8           3.9580     0.1910     1.1690 h1         1 HAT       0.002367
     44 H9           0.6540    -0.5220     3.0740 h1         1 HAT       0.027700
     45 H10          1.3200    -1.8990     2.1670 h1         1 HAT       0.027700
     46 H11         -0.5450    -1.9230     0.8510 h1         1 HAT       0.061700
     47 H12         -1.7220     0.5900     1.8700 hn         1 HAT       0.182500
     48 H13         -3.0960     1.3860     2.8370 ha         1 HAT       0.115000
     49 H14         -5.0530     2.2120     4.0790 h4         1 HAT      -0.015900
     50 H15         -6.0400    -1.6150     5.3550 h4         1 HAT      -0.009900
     51 H16         -4.5970    -3.5110     3.5810 hn         1 HAT       0.291800
     52 H17         -3.2910    -5.4170     4.2660 ha         1 HAT       0.116000
     53 H18         -2.7630    -1.5360     5.9920 ha         1 HAT       0.129000
     54 H19          0.4920    -2.1640     9.2350 h4         1 HAT      -0.017900
     55 H20          1.0420    -4.5680     9.1650 h4         1 HAT      -0.013900
     56 H21         -3.5910    -7.3730     5.7490 ha         1 HAT       0.102000
     57 H22         -4.8190    -9.7020     6.6920 h1         1 HAT       0.015700
     58 H23         -4.8220   -11.2550     5.8460 h1         1 HAT       0.015700
     59 H24         -4.8930    -9.7460     4.9250 h1         1 HAT       0.015700
     60 H25         -2.5600   -12.3230     5.6590 h4         1 HAT       0.137000
     61 H26         -0.0620   -11.5710     5.5740 ha         1 HAT       0.128000
     62 H27          1.1490    -8.8110     5.6040 ha         1 HAT       0.100000
     63 H28          0.5940    -6.4320     5.6820 ha         1 HAT       0.114000
@<TRIPOS>BOND
     1     1     2 1   
     2     1     6 1   
     3     1    37 1   
     4     1    38 1   
     5     2     3 1   
     6     2    39 1   
     7     2    40 1   
     8     3     4 1   
     9     3     5 1   
    10     4    41 1   
    11     4    42 1   
    12     4    43 1   
    13     5     6 1   
    14     5    44 1   
    15     5    45 1   
    16     6     7 1   
    17     6    46 1   
    18     7     8 1   
    19     7    47 1   
    20     8     9 2   
    21     8    10 1   
    22    10    11 ar  
    23    10    15 ar  
    24    11    12 ar  
    25    11    48 1   
    26    12    13 ar  
    27    12    49 1   
    28    13    14 ar  
    29    14    15 ar  
    30    14    50 1   
    31    15    16 1   
    32    16    17 1   
    33    16    51 1   
    34    17    18 ar  
    35    17    19 ar  
    36    18    26 ar  
    37    18    52 1   
    38    19    20 ar  
    39    19    53 1   
    40    20    21 ar  
    41    20    25 ar  
    42    21    22 ar  
    43    22    23 ar  
    44    22    54 1   
    45    23    24 ar  
    46    23    55 1   
    47    24    25 ar  
    48    25    26 ar  
    49    26    27 1   
    50    27    28 ar  
    51    27    36 ar  
    52    28    29 ar  
    53    28    56 1   
    54    29    30 1   
    55    29    34 ar  
    56    30    31 1   
    57    30    32 1   
    58    31    57 1   
    59    31    58 1   
    60    31    59 1   
    61    32    33 2   
    62    32    60 1   
    63    33    34 1   
    64    33    61 1   
    65    34    35 ar  
    66    35    36 ar  
    67    35    62 1   
    68    36    63 1   
@<TRIPOS>SUBSTRUCTURE
     1 HAT         1 TEMP              0 ****  ****    0 ROOT
