@<TRIPOS>MOLECULE
molecule
   38    39     1     0     0
SMALL
bcc


@<TRIPOS>ATOM
      1 C            0.0000     0.0000     0.0000 c          1 HAU       0.662100
      2 O            1.2140     0.0000     0.0000 o          1 HAU      -0.607100
      3 C1          -0.7530     0.0000     1.3050 c3         1 HAU      -0.171100
      4 N1          -0.6730     0.0060    -1.1670 n          1 HAU      -0.495800
      5 O1          -1.7010     3.0230    -4.7490 o          1 HAU      -0.524100
      6 N2          -3.4200     4.3170    -5.7540 nb         1 HAU      -0.679000
      7 C3           0.0470     0.0120    -2.4480 c3         1 HAU       0.103000
      8 N3          -3.8010     2.3370    -4.5490 ns         1 HAU      -0.556400
      9 C4          -0.4620     1.1840    -3.2940 c3         1 HAU      -0.086400
     10 C5          -1.9840     1.0870    -3.4290 c3         1 HAU      -0.146700
     11 C6          -2.6270     1.1760    -2.0430 c3         1 HAU      -0.086400
     12 C7          -2.1420    -0.0010    -1.1840 c3         1 HAU       0.103000
     13 C8          -2.4840     2.2180    -4.2900 c          1 HAU       0.647100
     14 C9          -4.2760     3.4410    -5.2540 ca         1 HAU       0.548200
     15 C10         -5.6460     3.6110    -5.4260 ca         1 HAU      -0.295300
     16 C11         -6.1040     4.7110    -6.1280 ca         1 HAU      -0.066000
     17 C12         -5.1740     5.6070    -6.6370 ca         1 HAU      -0.243600
     18 C13         -3.8280     5.3760    -6.4290 ca         1 HAU       0.453200
     19 C14         -5.6270     6.8200    -7.4090 c3         1 HAU      -0.039800
     20 H1          -1.3020     0.9280     1.4050 hc         1 HAU       0.060367
     21 H1A         -1.4460    -0.8330     1.3230 hc         1 HAU       0.060367
     22 H1B         -0.0530    -0.0950     2.1260 hc         1 HAU       0.060367
     23 H3          -0.1350    -0.9190    -2.9710 h1         1 HAU       0.057200
     24 H3A          1.1090     0.1320    -2.2660 h1         1 HAU       0.057200
     25 HN3         -4.4330     1.6130    -4.2670 hn         1 HAU       0.326500
     26 H4          -0.0090     1.1410    -4.2770 hc         1 HAU       0.062200
     27 H4A         -0.2020     2.1170    -2.8100 hc         1 HAU       0.062200
     28 H5          -2.2440     0.1390    -3.8850 hc         1 HAU       0.064700
     29 H6          -3.7050     1.1310    -2.1420 hc         1 HAU       0.062200
     30 H6A         -2.3400     2.1090    -1.5720 hc         1 HAU       0.062200
     31 H7          -2.4970    -0.9320    -1.6100 h1         1 HAU       0.057200
     32 H7A         -2.5170     0.1090    -0.1730 h1         1 HAU       0.057200
     33 H10         -6.3440     2.8910    -5.0150 ha         1 HAU       0.132000
     34 H11         -7.1650     4.8690    -6.2780 ha         1 HAU       0.138000
     35 H13         -3.0980     6.0720    -6.8230 h4         1 HAU       0.030100
     36 H14         -6.7080     6.8260    -7.4700 hc         1 HAU       0.043367
     37 H14A        -5.2890     7.7170    -6.9040 hc         1 HAU       0.043367
     38 H14B        -5.2090     6.7890    -8.4080 hc         1 HAU       0.043367
@<TRIPOS>BOND
     1     1     2 2
     2     1     3 1
     3     1     4 1
     4     4     7 1
     5     4    12 1
     6     5    13 2
     7     6    14 ar
     8     6    18 ar
     9     7     9 1
    10     8    13 1
    11     8    14 1
    12     9    10 1
    13    10    11 1
    14    10    13 1
    15    11    12 1
    16    14    15 ar
    17    15    16 ar
    18    16    17 ar
    19    17    18 ar
    20    17    19 1
    21     3    20 1
    22     3    21 1
    23     3    22 1
    24     7    23 1
    25     7    24 1
    26     8    25 1
    27     9    26 1
    28     9    27 1
    29    10    28 1
    30    11    29 1
    31    11    30 1
    32    12    31 1
    33    12    32 1
    34    15    33 1
    35    16    34 1
    36    18    35 1
    37    19    36 1
    38    19    37 1
    39    19    38 1
@<TRIPOS>SUBSTRUCTURE
     1 HAU         1 TEMP              0 ****  ****    0 ROOT
