@<TRIPOS>MOLECULE
HAV
   22    21     1     0     0
SMALL
bcc


@<TRIPOS>ATOM
      1 NA           0.0000     0.0000     0.0000 nz         1 HAV       0.094400
      2 CA           1.4680     0.0000     0.0000 c3         1 HAV      -0.155500
      3 CB           1.9780     0.0000     1.4410 c3         1 HAV      -0.059700
      4 CG1          1.4680    -1.2480     2.1640 c3         1 HAV      -0.004100
      5 CG2          3.5080     0.0000     1.4420 c3         1 HAV      -0.004100
      6 C            1.9710     1.2290    -0.7110 c          1 HAV       0.541100
      7 O            1.3160     2.2490    -0.6940 o          1 HAV      -0.602100
      8 O1           3.6200     2.3520    -2.0330 oh         1 HAV      -0.410100
      9 N            3.1480     1.1950    -1.3650 ns         1 HAV       0.022600
     10 HNA1        -0.3340     0.2660    -0.9050 hn         1 HAV       0.231467
     11 HNA2        -0.3340    -0.9170     0.2220 hn         1 HAV       0.231467
     12 HA           1.8290    -0.8850    -0.5100 hx         1 HAV       0.090700
     13 HB           1.6170     0.8850     1.9510 hc         1 HAV       0.063700
     14 HG11         0.4260    -1.1120     2.4290 hc         1 HAV       0.024200
     15 HG12         1.5650    -2.1080     1.5130 hc         1 HAV       0.024200
     16 HG13         2.0500    -1.4080     3.0630 hc         1 HAV       0.024200
     17 HG21         3.8690     0.9760     1.1390 hc         1 HAV       0.024200
     18 HG22         3.8690    -0.7500     0.7490 hc         1 HAV       0.024200
     19 HG23         3.8680    -0.2250     2.4380 hc         1 HAV       0.024200
     20 HO1          4.0140     2.1030    -2.8530 ho         1 HAV       0.415000
     21 HN           3.6660     0.3410    -1.4190 hn         1 HAV       0.168500
     22 HA3         -0.3340     0.7020     0.6310 hn         1 HAV       0.231467
@<TRIPOS>BOND
     1     1     2 1   
     2     1    10 1   
     3     1    11 1   
     4     1    22 1   
     5     2     3 1   
     6     2     6 1   
     7     2    12 1   
     8     3     4 1   
     9     3     5 1   
    10     3    13 1   
    11     4    14 1   
    12     4    15 1   
    13     4    16 1   
    14     5    17 1   
    15     5    18 1   
    16     5    19 1   
    17     6     7 2   
    18     6     9 1   
    19     8     9 1   
    20     8    20 1   
    21     9    21 1   
@<TRIPOS>SUBSTRUCTURE
     1 HAV         1 TEMP              0 ****  ****    0 ROOT
