@<TRIPOS>MOLECULE
molecule
   61    66     1     0     0
SMALL
bcc


@<TRIPOS>ATOM
      1 CAH          0.0000     0.0000     0.0000 ca         1 HAW      -0.122000
      2 CAI          1.3880     0.0000     0.0000 ca         1 HAW      -0.042200
      3 NAT          2.3350     0.0000     1.0020 na         1 HAW      -0.075400
      4 CAU          2.0410    -0.0000     2.4380 c3         1 HAW       0.040600
      5 CAS          3.5890     0.0010     0.4560 cc         1 HAW      -0.094100
      6 CAR          3.5050     0.0010    -0.8850 cd         1 HAW      -0.204200
      7 CAJ          2.0810     0.0010    -1.2260 ca         1 HAW      -0.091800
      8 CAK          1.3740     0.0010    -2.4320 ca         1 HAW      -0.086000
      9 CAL          0.0110     0.0020    -2.4210 ca         1 HAW      -0.113000
     10 CAG         -0.6880    -0.0070    -1.2080 cp         1 HAW      -0.031000
     11 CAC         -2.1680    -0.0050    -1.2130 cp         1 HAW      -0.029300
     12 CAB         -2.8660    -0.9240    -0.4520 ca         1 HAW      -0.146000
     13 CAD         -2.8790     0.9430    -1.9910 ca         1 HAW       0.288300
     14 NAP         -2.2330     1.8460    -2.7300 nb         1 HAW      -0.623000
     15 CAO         -2.9150     2.7140    -3.4440 ca         1 HAW       0.291900
     16 CAN         -4.3100     2.7030    -3.4370 ca         1 HAW       0.310900
     17 NAM         -4.9690     1.8230    -2.7160 nb         1 HAW      -0.648000
     18 CAE         -4.2970     0.9290    -1.9830 ca         1 HAW       0.321300
     19 CAF         -4.9760    -0.0230    -1.2040 ca         1 HAW      -0.216300
     20 CAA         -4.2640    -0.9310    -0.4500 ca         1 HAW       0.165600
     21 NAQ         -4.9480    -1.8730     0.3200 nu         1 HAW      -0.706000
     22 CAV         -6.0360    -1.4780     1.1010 ca         1 HAW       0.269600
     23 CBA         -6.2260    -0.1370     1.4050 ca         1 HAW      -0.207000
     24 CAZ         -7.3070     0.2500     2.1720 ca         1 HAW      -0.038000
     25 CAY         -8.2000    -0.6970     2.6390 ca         1 HAW      -0.190000
     26 CAX         -8.0130    -2.0340     2.3400 ca         1 HAW       0.006000
     27 CAW         -6.9350    -2.4280     1.5720 ca         1 HAW      -0.373500
     28 SBB         -6.7030    -4.1310     1.1840 sy         1 HAW       1.433200
     29 OBC         -5.3270    -4.4080     1.4010 o          1 HAW      -0.641800
     30 OBD         -7.7500    -4.8370     1.8350 o          1 HAW      -0.641800
     31 NBE         -6.9640    -4.3040    -0.4420 n7         1 HAW      -0.915100
     32 CBF         -6.0330    -3.7030    -1.4000 c3         1 HAW       0.285100
     33 CBG         -6.3200    -4.2360    -2.7800 ca         1 HAW      -0.363900
     34 CBH         -7.2210    -3.5940    -3.6160 ca         1 HAW       0.473700
     35 NBI         -7.4490    -4.0910    -4.8210 nb         1 HAW      -0.735000
     36 CBJ         -6.8300    -5.1810    -5.2290 ca         1 HAW       0.684900
     37 NBK         -5.9680    -5.8180    -4.4630 nb         1 HAW      -0.735000
     38 CBL         -5.6860    -5.3760    -3.2480 ca         1 HAW       0.473700
     39 H1          -0.5440    -0.0060     0.9370 ha         1 HAW       0.128000
     40 H2           2.9670     0.0660     2.9960 h1         1 HAW       0.048700
     41 H3           1.5250    -0.9160     2.7000 h1         1 HAW       0.048700
     42 H4           1.4130     0.8490     2.6780 h1         1 HAW       0.048700
     43 H5           4.5130     0.0010     1.0220 h4         1 HAW       0.164000
     44 H6           4.3350     0.0010    -1.5820 ha         1 HAW       0.155000
     45 H7           1.9090     0.0070    -3.3740 ha         1 HAW       0.133000
     46 H8          -0.5350    -0.0030    -3.3570 ha         1 HAW       0.139000
     47 H9          -2.3250    -1.6460     0.1470 ha         1 HAW       0.154000
     48 H10         -2.3880     3.4460    -4.0440 h4         1 HAW       0.033100
     49 H11         -4.8550     3.4250    -4.0320 h4         1 HAW       0.032100
     50 H12         -6.0590    -0.0400    -1.1930 ha         1 HAW       0.160000
     51 H13         -4.6140    -2.8160     0.3680 hn         1 HAW       0.478800
     52 H14         -5.5270     0.6060     1.0400 ha         1 HAW       0.151000
     53 H15         -7.4560     1.2970     2.4090 ha         1 HAW       0.137000
     54 H16         -9.0470    -0.3910     3.2410 ha         1 HAW       0.139000
     55 H17         -8.7150    -2.7730     2.7070 ha         1 HAW       0.158000
     56 H18         -7.7390    -4.8460    -0.7700 hn         1 HAW       0.462800
     57 H19         -6.1540    -2.6270    -1.3960 h1         1 HAW       0.059200
     58 H20         -5.0160    -3.9530    -1.1210 h1         1 HAW       0.059200
     59 H21         -7.7320    -2.6980    -3.2860 h4         1 HAW       0.036600
     60 H22         -7.0390    -5.5660    -6.2200 h5         1 HAW       0.064100
     61 H23         -4.9760    -5.9050    -2.6230 h4         1 HAW       0.036600
@<TRIPOS>BOND
     1    24    25 ar
     2    24    23 ar
     3    25    26 ar
     4    23    22 ar
     5    26    27 ar
     6    22    27 ar
     7    22    21 1
     8    27    28 1
     9    21    20 1
    10    29    28 2
    11    19    20 ar
    12    19    18 ar
    13    20    12 ar
    14    17    18 ar
    15    17    16 ar
    16    28    30 2
    17    28    31 1
    18    18    13 ar
    19    16    15 ar
    20    12    11 ar
    21    13    11 ar
    22    13    14 ar
    23    11    10 1
    24    15    14 ar
    25     9    10 ar
    26     9     8 ar
    27    31    32 1
    28    32    33 1
    29    10     1 ar
    30     8     7 ar
    31    33    34 ar
    32    33    38 ar
    33    34    35 ar
    34     1     2 ar
    35     7     2 ar
    36     7     6 1
    37     2     3 1
    38    38    37 ar
    39     6     5 2
    40    35    36 ar
    41    37    36 ar
    42     3     5 1
    43     3     4 1
    44     1    39 1
    45     4    40 1
    46     4    41 1
    47     4    42 1
    48     5    43 1
    49     6    44 1
    50     8    45 1
    51     9    46 1
    52    12    47 1
    53    15    48 1
    54    16    49 1
    55    19    50 1
    56    21    51 1
    57    23    52 1
    58    24    53 1
    59    25    54 1
    60    26    55 1
    61    31    56 1
    62    32    57 1
    63    32    58 1
    64    34    59 1
    65    36    60 1
    66    38    61 1
@<TRIPOS>SUBSTRUCTURE
     1 HAW         1 TEMP              0 ****  ****    0 ROOT
