@<TRIPOS>MOLECULE
molecule
   65    68     1     0     0
SMALL
bcc


@<TRIPOS>ATOM
      1 O6           0.0000     0.0000     0.0000 o          1 HAZ      -0.852300
      2 C25          1.2080     0.0000     0.0000 c          1 HAZ       0.891600
      3 O5           1.8780     0.0000     1.1630 o          1 HAZ      -0.852300
      4 C22          1.7330     0.0040    -3.7920 c3         1 HAZ      -0.161400
      5 C23          0.9680     0.0020    -2.4680 c3         1 HAZ      -0.050400
      6 C24          1.9620     0.0010    -1.3040 c3         1 HAZ      -0.186400
      7 C21          0.7550     0.0040    -4.9380 c          1 HAZ       0.651100
      8 O4          -0.4380     0.0030    -4.7180 o          1 HAZ      -0.582100
      9 N3           1.2050     0.0060    -6.2090 ns         1 HAZ      -0.494100
     10 C15         -1.4880     0.3630    -9.3720 ca         1 HAZ       0.015600
     11 C16         -0.3520    -0.4230    -9.5130 ca         1 HAZ      -0.128500
     12 C17          0.5390    -0.5410    -8.4660 ca         1 HAZ      -0.134500
     13 C18          0.3000     0.1260    -7.2720 ca         1 HAZ       0.061600
     14 C19         -0.8350     0.9120    -7.1310 ca         1 HAZ      -0.134500
     15 C20         -1.7250     1.0340    -8.1800 ca         1 HAZ      -0.128500
     16 C14         -2.6220    -0.5690   -11.2470 c          1 HAZ       0.646100
     17 O3          -1.9890    -1.5940   -11.1060 o          1 HAZ      -0.525100
     18 C1          -6.5970    -2.6990   -13.0050 c3         1 HAZ      -0.076400
     19 C10         -6.1230    -1.6290   -13.9920 c3         1 HAZ      -0.062000
     20 C11         -6.8630    -0.8940   -17.7720 c3         1 HAZ      -0.071100
     21 C12         -6.5690    -0.2580   -13.4840 c3         1 HAZ      -0.095100
     22 C2          -5.7780    -2.5920   -11.7180 c3         1 HAZ      -0.118400
     23 C3          -4.2980    -2.7730   -12.0320 c3         1 HAZ       0.134800
     24 O2          -2.4490    -2.2000   -13.3920 o          1 HAZ      -0.614000
     25 C13         -3.6660    -0.4710   -12.3300 c3         1 HAZ       0.057800
     26 N1          -3.8110    -1.7730   -12.9880 n4         1 HAZ      -0.279600
     27 C5          -4.6220    -1.7250   -14.1890 c3         1 HAZ       0.146500
     28 C6          -4.1510    -0.6560   -15.1760 c3         1 HAZ      -0.083400
     29 C7          -4.5780    -1.0890   -16.5830 c3         1 HAZ      -0.052400
     30 C8          -6.0520    -1.4790   -16.6120 cx         1 HAZ       0.043800
     31 C9          -6.8080    -1.8440   -15.3440 cx         1 HAZ       0.072100
     32 O1          -6.3350    -2.8390   -16.2350 op         1 HAZ      -0.377600
     33 H221         2.3550     0.8890    -3.8490 hc         1 HAZ       0.050700
     34 H222         2.3570    -0.8800    -3.8500 hc         1 HAZ       0.050700
     35 H231         0.3450     0.8860    -2.4100 hc         1 HAZ       0.063200
     36 H232         0.3450    -0.8830    -2.4120 hc         1 HAZ       0.063200
     37 H241         2.5840     0.8860    -1.3600 hc         1 HAZ       0.025200
     38 H242         2.5850    -0.8830    -1.3620 hc         1 HAZ       0.025200
     39 HN3          2.1830    -0.0940    -6.3940 hn         1 HAZ       0.319500
     40 H16         -0.1660    -0.9450   -10.4440 ha         1 HAZ       0.147000
     41 H17          1.4260    -1.1540    -8.5760 ha         1 HAZ       0.150500
     42 H19         -1.0200     1.4360    -6.2010 ha         1 HAZ       0.150500
     43 H20         -2.6110     1.6470    -8.0710 ha         1 HAZ       0.147000
     44 HN2         -2.9230     1.3240   -10.5480 hn         1 HAZ       0.312500
     45 H11         -7.6450    -2.5440   -12.7800 hc         1 HAZ       0.057200
     46 H12         -6.4570    -3.6810   -13.4420 hc         1 HAZ       0.057200
     47 H111        -6.3270    -1.0490   -18.7010 hc         1 HAZ       0.046700
     48 H112        -7.8260    -1.3870   -17.8240 hc         1 HAZ       0.046700
     49 H113        -7.0080     0.1680   -17.6120 hc         1 HAZ       0.046700
     50 H121        -7.3770     0.1110   -14.1040 hc         1 HAZ       0.042700
     51 H122        -6.9100    -0.3460   -12.4600 hc         1 HAZ       0.042700
     52 H123        -5.7350     0.4320   -13.5290 hc         1 HAZ       0.042700
     53 H21         -6.0950    -3.3640   -11.0260 hc         1 HAZ       0.055700
     54 H22         -5.9340    -1.6170   -11.2730 hc         1 HAZ       0.055700
     55 H31         -4.1470    -3.7600   -12.4500 hx         1 HAZ       0.102200
     56 H32         -3.7310    -2.6840   -11.1130 hx         1 HAZ       0.102200
     57 H131        -4.6130    -0.1790   -11.8930 hx         1 HAZ       0.074200
     58 H132        -3.3610     0.2710   -13.0590 hx         1 HAZ       0.074200
     59 H5          -4.4570    -2.6740   -14.6850 hx         1 HAZ       0.112700
     60 H61         -3.0720    -0.5700   -15.1330 hc         1 HAZ       0.066700
     61 H62         -4.6100     0.2940   -14.9320 hc         1 HAZ       0.066700
     62 H71         -4.4140    -0.2690   -17.2710 hc         1 HAZ       0.064700
     63 H72         -3.9810    -1.9400   -16.8880 hc         1 HAZ       0.064700
     64 H9          -7.8750    -1.6610   -15.3990 h1         1 HAZ       0.089700
     65 N2          -2.3930     0.4830   -10.4360 ns         1 HAZ      -0.478100
@<TRIPOS>BOND
     1     1     2 1
     2     2     3 1
     3     2     6 1
     4     4     5 1
     5     4     7 1
     6     4    33 1
     7     4    34 1
     8     5     6 1
     9     5    35 1
    10     5    36 1
    11     6    37 1
    12     6    38 1
    13     7     8 2
    14     7     9 1
    15     9    13 1
    16     9    39 1
    17    10    11 ar
    18    10    15 ar
    19    10    65 1
    20    11    12 ar
    21    11    40 1
    22    12    13 ar
    23    12    41 1
    24    13    14 ar
    25    14    15 ar
    26    14    42 1
    27    15    43 1
    28    65    16 1
    29    65    44 1
    30    16    17 2
    31    16    25 1
    32    18    19 1
    33    18    22 1
    34    18    45 1
    35    18    46 1
    36    19    21 1
    37    19    27 1
    38    19    31 1
    39    20    30 1
    40    20    47 1
    41    20    48 1
    42    20    49 1
    43    21    50 1
    44    21    51 1
    45    21    52 1
    46    22    23 1
    47    22    53 1
    48    22    54 1
    49    23    26 1
    50    23    55 1
    51    23    56 1
    52    24    26 1
    53    25    26 1
    54    25    57 1
    55    25    58 1
    56    26    27 1
    57    27    28 1
    58    27    59 1
    59    28    29 1
    60    28    60 1
    61    28    61 1
    62    29    30 1
    63    29    62 1
    64    29    63 1
    65    30    31 1
    66    30    32 1
    67    31    32 1
    68    31    64 1
@<TRIPOS>SUBSTRUCTURE
     1 HAZ         1 TEMP              0 ****  ****    0 ROOT
