@<TRIPOS>MOLECULE
molecule
   23    23     1     0     0
SMALL
bcc


@<TRIPOS>ATOM
      1 CAA          0.0000     0.0000     0.0000 c3         1 HB0       0.146100
      2 CAB          1.5300     0.0000     0.0000 c3         1 HB0      -0.089900
      3 CAC          2.0410     0.0000     1.4420 c3         1 HB0      -0.073900
      4 CAD          1.5320     1.2490     2.1640 c3         1 HB0      -0.071700
      5 CAE          0.0010     1.2490     2.1640 c3         1 HB0      -0.073900
      6 CAF         -0.5090     1.2490     0.7220 c3         1 HB0      -0.089900
      7 CAG          2.0420     1.2490     3.6060 c3         1 HB0       0.143400
      8 OAH          1.6640     2.4700     4.2440 oh         1 HB0      -0.610800
      9 OAI         -0.4770     0.0000    -1.3470 oh         1 HB0      -0.606800
     10 HAA         -0.3590    -0.8830     0.5150 h1         1 HB0       0.027700
     11 HAB          1.8900     0.8860    -0.5090 hc         1 HB0       0.052200
     12 HABA         1.8900    -0.8860    -0.5090 hc         1 HB0       0.052200
     13 HAC          1.6770    -0.8840     1.9520 hc         1 HB0       0.045950
     14 HACA         3.1240     0.0020     1.4400 hc         1 HB0       0.045950
     15 HAD          1.8910     2.1320     1.6490 hc         1 HB0       0.066700
     16 HAE         -0.3580     2.1350     2.6720 hc         1 HB0       0.045950
     17 HAEA        -0.3580     0.3630     2.6730 hc         1 HB0       0.045950
     18 HAF         -1.5920     1.2470     0.7230 hc         1 HB0       0.052200
     19 HAFA        -0.1460     2.1330     0.2110 hc         1 HB0       0.052200
     20 HAG          3.1220     1.1600     3.6070 h1         1 HB0       0.020700
     21 HAGA         1.6100     0.4120     4.1420 h1         1 HB0       0.020700
     22 HOAH         2.1490     2.5680     5.0470 ho         1 HB0       0.401000
     23 HOAI        -1.0000    -0.7700    -1.4950 ho         1 HB0       0.399000
@<TRIPOS>BOND
     1     1     2 1
     2     1     6 1
     3     1     9 1
     4     2     3 1
     5     3     4 1
     6     4     5 1
     7     4     7 1
     8     5     6 1
     9     7     8 1
    10     1    10 1
    11     2    11 1
    12     2    12 1
    13     3    13 1
    14     3    14 1
    15     4    15 1
    16     5    16 1
    17     5    17 1
    18     6    18 1
    19     6    19 1
    20     7    20 1
    21     7    21 1
    22     8    22 1
    23     9    23 1
@<TRIPOS>SUBSTRUCTURE
     1 HB0         1 TEMP              0 ****  ****    0 ROOT
