@<TRIPOS>MOLECULE
HB0
   23    23     1     0     0
SMALL
bcc


@<TRIPOS>ATOM
      1 CAA         0.0530   -0.0850   -0.0010 c3        1 HB0      0.141100
      2 CAB         1.5780   -0.0610    0.0250 c3        1 HB0     -0.093400
      3 CAC         2.0890    0.0250    1.4470 c3        1 HB0     -0.071900
      4 CAD         1.5160    1.2380    2.1640 c3        1 HB0     -0.068700
      5 CAE        -0.0050    1.2070    2.1410 c3        1 HB0     -0.071900
      6 CAF        -0.5280    1.1260    0.7240 c3        1 HB0     -0.093400
      7 CAG         2.0310    1.2810    3.5990 c3        1 HB0      0.133400
      8 OAH         1.7040    2.5550    4.1310 oh        1 HB0     -0.601800
      9 OAI        -0.3260   -0.0950   -1.3720 oh        1 HB0     -0.600800
     10 HAA        -0.3210   -1.0300    0.4880 h1        1 HB0      0.030700
     11 HAB         1.9390    0.8170   -0.5720 hc        1 HB0      0.051200
     12 HABA        1.9680   -0.9880   -0.4690 hc        1 HB0      0.051200
     13 HAC         1.8110   -0.9060    2.0070 hc        1 HB0      0.045200
     14 HACA        3.2080    0.0900    1.4330 hc        1 HB0      0.045200
     15 HAD         1.8610    2.1730    1.6390 hc        1 HB0      0.068700
     16 HAE        -0.3710    0.3240    2.7280 hc        1 HB0      0.045200
     17 HAEA       -0.3950    2.1320    2.6410 hc        1 HB0      0.045200
     18 HAF        -1.6460    1.0540    0.7360 hc        1 HB0      0.051200
     19 HAFA       -0.2550    2.0550    0.1590 hc        1 HB0      0.051200
     20 HAG         1.5520    0.4740    4.2160 h1        1 HB0      0.021700
     21 HAGA        3.1460    1.1380    3.6140 h1        1 HB0      0.021700
     22 HOAH        2.0370    2.5680    5.0350 ho        1 HB0      0.399000
     23 HOAI       -1.2870   -0.0130   -1.3950 ho        1 HB0      0.399000
@<TRIPOS>BOND
     1    1    2 1   
     2    1    6 1   
     3    1    9 1   
     4    1   10 1   
     5    2    3 1   
     6    2   11 1   
     7    2   12 1   
     8    3    4 1   
     9    3   13 1   
    10    3   14 1   
    11    4    5 1   
    12    4    7 1   
    13    4   15 1   
    14    5    6 1   
    15    5   16 1   
    16    5   17 1   
    17    6   18 1   
    18    6   19 1   
    19    7    8 1   
    20    7   20 1   
    21    7   21 1   
    22    8   22 1   
    23    9   23 1   
@<TRIPOS>SUBSTRUCTURE
     1 HB0         1 TEMP              0 ****  ****    0 ROOT
