@<TRIPOS>MOLECULE
molecule
   47    49     1     0     0
SMALL
bcc


@<TRIPOS>ATOM
      1 CAQ          0.0000     0.0000     0.0000 c3         1 HB2      -0.091100
      2 CAP          1.5300     0.0000     0.0000 c3         1 HB2      -0.084400
      3 CAO          2.0400     0.0000     1.4420 c3         1 HB2      -0.082400
      4 CAN          3.5690    -0.0010     1.4430 c3         1 HB2      -0.083700
      5 CAL          4.0730    -0.0000     2.8640 cc         1 HB2       0.416800
      6 NAK          4.3220    -1.0650     3.5700 nd         1 HB2      -0.573100
      7 CAH          4.7580    -0.7020     4.7990 ca         1 HB2      -0.044900
      8 CAG          5.1640    -1.4140     5.9510 ca         1 HB2       0.766200
      9 NAR          5.1540    -2.7990     5.9250 nv         1 HB2      -1.077500
     10 NAI          5.5510    -0.7990     7.0440 nb         1 HB2      -0.728000
     11 CAA          5.5890     0.5390     7.1500 ca         1 HB2       0.438600
     12 CAC          6.0080     1.1540     8.3380 ca         1 HB2      -0.160300
     13 CAE          6.0380     2.5150     8.4240 ca         1 HB2      -0.126000
     14 CAF          5.6580     3.3080     7.3470 ca         1 HB2      -0.134000
     15 CAD          5.2440     2.7420     6.1760 ca         1 HB2      -0.129000
     16 CAB          5.2020     1.3500     6.0560 ca         1 HB2      -0.129300
     17 CAJ          4.7680     0.6960     4.8290 ca         1 HB2      -0.095200
     18 NAM          4.3380     1.1130     3.5990 na         1 HB2      -0.110300
     19 CAS          4.1900     2.5020     3.1570 c3         1 HB2       0.054300
     20 CAT          5.5000     2.9780     2.5250 c3         1 HB2       0.126800
     21 CAU          5.3870     4.4640     2.1760 c3         1 HB2      -0.127600
     22 CAV          6.6480     2.7720     3.5150 c3         1 HB2      -0.127600
     23 OAW          5.7550     2.2280     1.3360 oh         1 HB2      -0.601800
     24 H1          -0.3610    -0.0250    -1.0210 hc         1 HB2       0.034033
     25 H2          -0.3610     0.8970     0.4890 hc         1 HB2       0.034033
     26 H3          -0.3610    -0.8720     0.5320 hc         1 HB2       0.034033
     27 H4           1.8910     0.8850    -0.5110 hc         1 HB2       0.041200
     28 H5           1.8910    -0.8840    -0.5110 hc         1 HB2       0.041200
     29 H6           1.6780    -0.8840     1.9530 hc         1 HB2       0.048200
     30 H7           1.6790     0.8850     1.9530 hc         1 HB2       0.048200
     31 H8           3.9310     0.8830     0.9310 hc         1 HB2       0.074200
     32 H9           3.9300    -0.8860     0.9330 hc         1 HB2       0.074200
     33 H10          5.9660    -3.2990     5.6200 hn         1 HB2       0.439800
     34 H11          4.3420    -3.2990     6.2280 hn         1 HB2       0.439800
     35 H12          6.3070     0.5500     9.1860 ha         1 HB2       0.150000
     36 H13          6.3630     2.9850     9.3440 ha         1 HB2       0.132000
     37 H14          5.6890     4.3870     7.4380 ha         1 HB2       0.127000
     38 H15          4.9500     3.3690     5.3430 ha         1 HB2       0.126000
     39 H16          3.9510     3.1290     4.0070 h1         1 HB2       0.075700
     40 H17          3.3930     2.5650     2.4260 h1         1 HB2       0.075700
     41 H18          6.3620     4.8440     1.8970 hc         1 HB2       0.050367
     42 H19          5.0190     5.0100     3.0360 hc         1 HB2       0.050367
     43 H20          4.7000     4.5890     1.3470 hc         1 HB2       0.050367
     44 H21          6.5270     3.4460     4.3540 hc         1 HB2       0.050367
     45 H22          6.6410     1.7480     3.8690 hc         1 HB2       0.050367
     46 H23          7.5910     2.9770     3.0220 hc         1 HB2       0.050367
     47 H24          6.4200     2.6610     0.8280 ho         1 HB2       0.410000
@<TRIPOS>BOND
     1    14    13 ar
     2    14    15 ar
     3    13    12 ar
     4    22    20 1
     5    23    20 1
     6    15    16 ar
     7    20    19 1
     8    20    21 1
     9    12    11 ar
    10    19    18 1
    11    16    11 ar
    12    16    17 ar
    13    11    10 ar
    14    17    18 1
    15    17     7 ar
    16    18     5 1
    17    10     8 ar
    18     5     4 1
    19     5     6 2
    20     7     8 ar
    21     7     6 1
    22     8     9 1
    23     2     1 1
    24     2     3 1
    25     4     3 1
    26     1    24 1
    27     1    25 1
    28     1    26 1
    29     2    27 1
    30     2    28 1
    31     3    29 1
    32     3    30 1
    33     4    31 1
    34     4    32 1
    35     9    33 1
    36     9    34 1
    37    12    35 1
    38    13    36 1
    39    14    37 1
    40    15    38 1
    41    19    39 1
    42    19    40 1
    43    21    41 1
    44    21    42 1
    45    21    43 1
    46    22    44 1
    47    22    45 1
    48    22    46 1
    49    23    47 1
@<TRIPOS>SUBSTRUCTURE
     1 HB2         1 TEMP              0 ****  ****    0 ROOT
