@<TRIPOS>MOLECULE
HB2
   47    49     1     0     0
SMALL
bcc


@<TRIPOS>ATOM
      1 CAQ          0.0000     0.0000     0.0000 c3         1 HB2       0.006900
      2 CAP          1.5300     0.0000     0.0000 c3         1 HB2      -0.027400
      3 CAO          2.0400     0.0000     1.4420 c3         1 HB2      -0.031400
      4 CAN          3.5690    -0.0010     1.4430 c3         1 HB2      -0.026700
      5 CAL          4.0730    -0.0000     2.8640 cc         1 HB2       0.199800
      6 NAK          4.3220    -1.0650     3.5700 nd         1 HB2      -0.480100
      7 CAH          4.7580    -0.7020     4.7990 ca         1 HB2      -0.070900
      8 CAG          5.1640    -1.4140     5.9510 ca         1 HB2       0.584200
      9 NAR          5.1540    -2.7990     5.9250 nv         1 HB2      -0.655500
     10 NAI          5.5510    -0.7990     7.0440 nb         1 HB2      -0.608000
     11 CAA          5.5890     0.5390     7.1500 ca         1 HB2       0.386600
     12 CAC          6.0080     1.1540     8.3380 ca         1 HB2      -0.132300
     13 CAE          6.0380     2.5150     8.4240 ca         1 HB2      -0.105000
     14 CAF          5.6580     3.3080     7.3470 ca         1 HB2      -0.097000
     15 CAD          5.2440     2.7420     6.1760 ca         1 HB2      -0.131000
     16 CAB          5.2020     1.3500     6.0560 ca         1 HB2      -0.095300
     17 CAJ          4.7680     0.6960     4.8290 ca         1 HB2      -0.276200
     18 NAM          4.3380     1.1130     3.5990 na         1 HB2       0.385700
     19 CAS          4.1900     2.5020     3.1570 c3         1 HB2      -0.062700
     20 CAT          5.5000     2.9780     2.5250 c3         1 HB2       0.149800
     21 CAU          5.3870     4.4640     2.1760 c3         1 HB2      -0.052100
     22 CAV          6.6480     2.7720     3.5150 c3         1 HB2      -0.052100
     23 OAW          5.7550     2.2280     1.3360 oh         1 HB2      -0.587800
     24 H1          -0.3610    -0.0250    -1.0210 hc         1 HB2       0.000700
     25 H2          -0.3610     0.8970     0.4890 hc         1 HB2       0.000700
     26 H3          -0.3610    -0.8720     0.5320 hc         1 HB2       0.000700
     27 H4           1.8910     0.8850    -0.5110 hc         1 HB2       0.013200
     28 H5           1.8910    -0.8840    -0.5110 hc         1 HB2       0.013200
     29 H6           1.6780    -0.8840     1.9530 hc         1 HB2       0.018200
     30 H7           1.6790     0.8850     1.9530 hc         1 HB2       0.018200
     31 H8           3.9310     0.8830     0.9310 hc         1 HB2       0.038200
     32 H9           3.9300    -0.8860     0.9330 hc         1 HB2       0.038200
     33 H10          5.9660    -3.2990     5.6200 hn         1 HB2       0.278800
     34 H11          4.3420    -3.2990     6.2280 hn         1 HB2       0.278800
     35 H12          6.3070     0.5500     9.1860 ha         1 HB2       0.117000
     36 H13          6.3630     2.9850     9.3440 ha         1 HB2       0.103000
     37 H14          5.6890     4.3870     7.4380 ha         1 HB2       0.100000
     38 H15          4.9500     3.3690     5.3430 ha         1 HB2       0.113000
     39 H16          3.9510     3.1290     4.0070 h1         1 HB2       0.054200
     40 H17          3.3930     2.5650     2.4260 h1         1 HB2       0.054200
     41 H18          6.3620     4.8440     1.8970 hc         1 HB2       0.022533
     42 H19          5.0190     5.0100     3.0360 hc         1 HB2       0.022533
     43 H20          4.7000     4.5890     1.3470 hc         1 HB2       0.022533
     44 H21          6.5270     3.4460     4.3540 hc         1 HB2       0.022533
     45 H22          6.6410     1.7480     3.8690 hc         1 HB2       0.022533
     46 H23          7.5910     2.9770     3.0220 hc         1 HB2       0.022533
     47 H24          6.4200     2.6610     0.8280 ho         1 HB2       0.403000
@<TRIPOS>BOND
     1     1     2 1   
     2     1    24 1   
     3     1    25 1   
     4     1    26 1   
     5     2     3 1   
     6     2    27 1   
     7     2    28 1   
     8     3     4 1   
     9     3    29 1   
    10     3    30 1   
    11     4     5 1   
    12     4    31 1   
    13     4    32 1   
    14     5     6 2   
    15     5    18 1   
    16     6     7 1   
    17     7     8 ar  
    18     7    17 ar  
    19     8     9 1   
    20     8    10 ar  
    21     9    33 1   
    22     9    34 1   
    23    10    11 ar  
    24    11    12 ar  
    25    11    16 ar  
    26    12    13 ar  
    27    12    35 1   
    28    13    14 ar  
    29    13    36 1   
    30    14    15 ar  
    31    14    37 1   
    32    15    16 ar  
    33    15    38 1   
    34    16    17 ar  
    35    17    18 1   
    36    18    19 1   
    37    19    20 1   
    38    19    39 1   
    39    19    40 1   
    40    20    21 1   
    41    20    22 1   
    42    20    23 1   
    43    21    41 1   
    44    21    42 1   
    45    21    43 1   
    46    22    44 1   
    47    22    45 1   
    48    22    46 1   
    49    23    47 1   
@<TRIPOS>SUBSTRUCTURE
     1 HB2         1 TEMP              0 ****  ****    0 ROOT
