@<TRIPOS>MOLECULE
molecule
   36    39     1     0     0
SMALL
bcc


@<TRIPOS>ATOM
      1 C4           0.0000     0.0000     0.0000 ca         1 HB4      -0.125300
      2 C7          -3.2230     0.5900    -1.8450 cp         1 HB4       0.568800
      3 C6          -2.2650     0.2500    -0.7690 cp         1 HB4      -0.156500
      4 C9          -5.1040    -1.1720    -1.2350 cc         1 HB4      -0.178200
      5 C20          3.2680     1.1940    -1.2350 c2         1 HB4       0.652100
      6 C8          -4.4450    -0.0920    -1.9640 ca         1 HB4      -0.338400
      7 C18          0.7010    -0.6770     2.1620 c3         1 HB4      -0.041100
      8 C16          1.5140     0.0000     0.0000 c3         1 HB4       0.297800
      9 C1          -2.7310    -0.1390     0.4870 ca         1 HB4      -0.101000
     10 C2          -1.8310    -0.4540     1.4840 ca         1 HB4      -0.127000
     11 C3          -0.4670    -0.3860     1.2440 ca         1 HB4      -0.071300
     12 C5          -0.8940     0.3170    -1.0050 ca         1 HB4      -0.064000
     13 C10         -6.2840    -1.3880    -1.8410 cd         1 HB4      -0.099100
     14 N11         -6.4280    -0.5310    -2.8990 na         1 HB4      -0.275100
     15 C12         -5.3250     0.2740    -3.0040 ca         1 HB4       0.492800
     16 N13         -4.9620     1.2510    -3.8290 nb         1 HB4      -0.763000
     17 C14         -3.8060     1.8630    -3.6810 ca         1 HB4       0.701900
     18 N15         -2.9520     1.5530    -2.7230 nb         1 HB4      -0.761000
     19 C17          1.9180     0.0000     1.4900 c3         1 HB4      -0.094400
     20 N19          2.0230     1.2010    -0.6670 nu         1 HB4      -0.878200
     21 N21          3.9960     0.1250    -1.1840 n2         1 HB4      -0.924100
     22 HC9         -4.7170    -1.6980    -0.3710 ha         1 HB4       0.163000
     23 H18A         0.5240    -0.2260     3.1310 hc         1 HB4       0.057700
     24 H18B         0.8640    -1.7470     2.2150 hc         1 HB4       0.057700
     25 HC16         1.8870    -0.8930    -0.4870 h1         1 HB4       0.098700
     26 HC1         -3.7900    -0.0980     0.7080 ha         1 HB4       0.140000
     27 HC2         -2.1920    -0.7560     2.4590 ha         1 HB4       0.132000
     28 HC5         -0.5270     0.6060    -1.9830 ha         1 HB4       0.150000
     29 HC10        -7.0130    -2.1300    -1.5380 h4         1 HB4       0.173000
     30 HN11        -7.2220    -0.4980    -3.5070 hn         1 HB4       0.307700
     31 HC14        -3.5450     2.6530    -4.3730 h5         1 HB4       0.060100
     32 H17B         2.0420     1.0130     1.8530 hc         1 HB4       0.060700
     33 H17A         2.8160    -0.5860     1.6440 hc         1 HB4       0.060700
     34 H34          1.4690     2.0350    -0.6870 hn         1 HB4       0.444800
     35 H1           3.6440     2.0820    -1.7270 h5         1 HB4      -0.025200
     36 H2           4.9060     0.1200    -1.5990 hn         1 HB4       0.403400
@<TRIPOS>BOND
     1     5    20 1
     2     5    21 2
     3    20     8 1
     4    19     8 1
     5    19     7 1
     6     8     1 1
     7     7    11 1
     8     1    11 ar
     9     1    12 ar
    10    11    10 ar
    11    12     3 ar
    12    10     9 ar
    13     3     9 ar
    14     3     2 1
    15     4     6 1
    16     4    13 2
    17     2     6 ar
    18     2    18 ar
    19     6    15 ar
    20    13    14 1
    21    18    17 ar
    22    15    14 1
    23    15    16 ar
    24    17    16 ar
    25     4    22 1
    26     7    23 1
    27     7    24 1
    28     8    25 1
    29     9    26 1
    30    10    27 1
    31    12    28 1
    32    13    29 1
    33    14    30 1
    34    17    31 1
    35    19    32 1
    36    19    33 1
    37    20    34 1
    38     5    35 1
    39    21    36 1
@<TRIPOS>SUBSTRUCTURE
     1 HB4         1 TEMP              0 ****  ****    0 ROOT
