@<TRIPOS>MOLECULE
HB4
   36    39     1     0     0
SMALL
bcc


@<TRIPOS>ATOM
      1 C4           0.0000     0.0000     0.0000 ca         1 HB4      -0.132300
      2 C7          -3.2230     0.5900    -1.8450 cp         1 HB4       0.537800
      3 C6          -2.2650     0.2500    -0.7690 cp         1 HB4      -0.158500
      4 C9          -5.1040    -1.1720    -1.2350 cc         1 HB4      -0.138200
      5 C20          3.2680     1.1940    -1.2350 c2         1 HB4       0.510100
      6 C8          -4.4450    -0.0920    -1.9640 ca         1 HB4      -0.337400
      7 C18          0.7010    -0.6770     2.1620 c3         1 HB4       0.040900
      8 C16          1.5140     0.0000     0.0000 c3         1 HB4       0.199800
      9 C1          -2.7310    -0.1390     0.4870 ca         1 HB4      -0.080000
     10 C2          -1.8310    -0.4540     1.4840 ca         1 HB4      -0.092000
     11 C3          -0.4670    -0.3860     1.2440 ca         1 HB4      -0.079300
     12 C5          -0.8940     0.3170    -1.0050 ca         1 HB4      -0.034000
     13 C10         -6.2840    -1.3880    -1.8410 cd         1 HB4      -0.269100
     14 N11         -6.4280    -0.5310    -2.8990 na         1 HB4       0.272900
     15 C12         -5.3250     0.2740    -3.0040 ca         1 HB4       0.254800
     16 N13         -4.9620     1.2510    -3.8290 nb         1 HB4      -0.629000
     17 C14         -3.8060     1.8630    -3.6810 ca         1 HB4       0.639900
     18 N15         -2.9520     1.5530    -2.7230 nb         1 HB4      -0.655000
     19 C17          1.9180     0.0000     1.4900 c3         1 HB4      -0.049400
     20 N19          2.0230     1.2010    -0.6670 nu         1 HB4      -0.540200
     21 N21          3.9960     0.1250    -1.1840 n2         1 HB4      -0.793100
     22 HC9         -4.7170    -1.6980    -0.3710 ha         1 HB4       0.139000
     23 H18A         0.5240    -0.2260     3.1310 hc         1 HB4       0.025200
     24 H18B         0.8640    -1.7470     2.2150 hc         1 HB4       0.025200
     25 HC16         1.8870    -0.8930    -0.4870 h1         1 HB4       0.049700
     26 HC1         -3.7900    -0.0980     0.7080 ha         1 HB4       0.117000
     27 HC2         -2.1920    -0.7560     2.4590 ha         1 HB4       0.105000
     28 HC5         -0.5270     0.6060    -1.9830 ha         1 HB4       0.120000
     29 HC10        -7.0130    -2.1300    -1.5380 h4         1 HB4       0.145000
     30 HN11        -7.2220    -0.4980    -3.5070 hn         1 HB4       0.121700
     31 HC14        -3.5450     2.6530    -4.3730 h5         1 HB4      -0.001900
     32 H17B         2.0420     1.0130     1.8530 hc         1 HB4       0.029200
     33 H17A         2.8160    -0.5860     1.6440 hc         1 HB4       0.029200
     34 H34          1.4690     2.0350    -0.6870 hn         1 HB4       0.302800
     35 H1           3.6440     2.0820    -1.7270 h5         1 HB4      -0.000200
     36 H2           3.6490    -0.6960    -0.7290 hn         1 HB4       0.323400
@<TRIPOS>BOND
     1     1     8 1   
     2     1    11 ar  
     3     1    12 ar  
     4     2     3 1   
     5     2     6 ar  
     6     2    18 ar  
     7     3     9 ar  
     8     3    12 ar  
     9     4     6 1   
    10     4    13 2   
    11     4    22 1   
    12     5    20 1   
    13     5    21 2   
    14     5    35 1   
    15     6    15 ar  
    16     7    11 1   
    17     7    19 1   
    18     7    23 1   
    19     7    24 1   
    20     8    19 1   
    21     8    20 1   
    22     8    25 1   
    23     9    10 ar  
    24     9    26 1   
    25    10    11 ar  
    26    10    27 1   
    27    12    28 1   
    28    13    14 1   
    29    13    29 1   
    30    14    15 1   
    31    14    30 1   
    32    15    16 ar  
    33    16    17 ar  
    34    17    18 ar  
    35    17    31 1   
    36    19    32 1   
    37    19    33 1   
    38    20    34 1   
    39    21    36 1   
@<TRIPOS>SUBSTRUCTURE
     1 HB4         1 TEMP              0 ****  ****    0 ROOT
