@<TRIPOS>MOLECULE
molecule
   62    64     1     0     0
SMALL
bcc


@<TRIPOS>ATOM
      1 C13          0.0000     0.0000     0.0000 ca         1 HB7      -0.051000
      2 C15          2.0740     0.0000     1.2040 ca         1 HB7       0.222600
      3 C17          4.1940     0.0040    -0.0710 c3         1 HB7       0.229600
      4 C18          4.2010    -0.0250     2.4670 c3         1 HB7       0.229600
      5 C14          1.3770     0.0000     0.0000 ca         1 HB7      -0.219500
      6 C12         -0.6960     0.0010     1.2120 ca         1 HB7      -0.211600
      7 C11         -2.1720     0.0070     1.2160 c          1 HB7       0.695700
      8 C05         -5.4830     1.7070    -2.8410 ca         1 HB7      -0.136600
      9 C06         -5.2980     0.3390    -3.0510 ca         1 HB7      -0.088000
     10 C07         -4.9220    -0.4710    -2.0000 ca         1 HB7      -0.105500
     11 C08         -4.7260     0.0690    -0.7410 ca         1 HB7      -0.076300
     12 C09         -4.3140    -0.8220     0.4020 c3         1 HB7       0.156300
     13 C19          1.3840    -0.0110     2.4130 ca         1 HB7      -0.219500
     14 C20          0.0070    -0.0050     2.4200 ca         1 HB7      -0.051000
     15 C22         -2.1280    -1.9200    -0.2760 c3         1 HB7       0.028000
     16 C23         -1.9070    -1.4550    -1.6920 c          1 HB7       0.620100
     17 C25         -1.0420    -1.7970    -3.9450 c3         1 HB7       0.161300
     18 C26         -0.2980    -2.8600    -4.7110 ca         1 HB7      -0.120300
     19 C27         -0.9980    -3.8420    -5.3870 ca         1 HB7      -0.112500
     20 C28         -0.3150    -4.8180    -6.0900 ca         1 HB7      -0.129500
     21 C29          1.0670    -4.8100    -6.1170 ca         1 HB7      -0.118000
     22 C30          1.7670    -3.8270    -5.4410 ca         1 HB7      -0.129500
     23 C31          1.0840    -2.8500    -4.7430 ca         1 HB7      -0.112500
     24 C33         -4.9060     1.4240    -0.5270 ca         1 HB7      -0.105500
     25 C34         -5.2780     2.2460    -1.5700 ca         1 HB7      -0.088000
     26 N03         -6.0830     2.0570    -5.1890 ns         1 HB7      -0.474400
     27 N10         -2.8520    -0.8860     0.4690 n          1 HB7      -0.468800
     28 N16          3.4650    -0.0070     1.2000 nh         1 HB7      -0.734000
     29 N24         -1.2570    -2.2480    -2.5680 ns         1 HB7      -0.588900
     30 O01         -6.0410     3.7730    -3.7790 o          1 HB7      -0.576100
     31 O04         -6.4700     2.8960    -6.2630 oh         1 HB7      -0.363100
     32 O21         -2.7750     0.8170     1.8940 o          1 HB7      -0.601100
     33 O32         -2.3130    -0.3680    -2.0450 o          1 HB7      -0.584100
     34 H1          -0.5430     0.0000    -0.9380 ha         1 HB7       0.149500
     35 H2           3.9010     0.8730    -0.6480 h1         1 HB7       0.037033
     36 H3           5.2590     0.0420     0.1240 h1         1 HB7       0.037033
     37 H4           3.9610    -0.8950    -0.6280 h1         1 HB7       0.037033
     38 H5           5.2660    -0.0360     2.2650 h1         1 HB7       0.037033
     39 H6           3.9310    -0.9110     3.0290 h1         1 HB7       0.037033
     40 H7           3.9520     0.8580     3.0430 h1         1 HB7       0.037033
     41 H8           1.9180     0.0040    -0.9380 ha         1 HB7       0.134500
     42 H9          -5.4510    -0.0850    -4.0360 ha         1 HB7       0.136000
     43 H10         -4.7780    -1.5320    -2.1600 ha         1 HB7       0.137500
     44 H11         -4.7120    -1.8170     0.2460 h1         1 HB7       0.064700
     45 H12         -4.7000    -0.4200     1.3310 h1         1 HB7       0.064700
     46 H13          1.9300    -0.0130     3.3480 ha         1 HB7       0.134500
     47 H14         -0.5300    -0.0090     3.3610 ha         1 HB7       0.149500
     48 H15         -1.1710    -2.1030     0.1970 h1         1 HB7       0.074700
     49 H16         -2.7090    -2.8340    -0.2820 h1         1 HB7       0.074700
     50 H17         -0.4610    -0.8830    -3.9390 h1         1 HB7       0.059200
     51 H18         -1.9990    -1.6140    -4.4180 h1         1 HB7       0.059200
     52 H19         -2.0810    -3.8480    -5.3660 ha         1 HB7       0.133500
     53 H20         -0.8630    -5.5870    -6.6200 ha         1 HB7       0.133000
     54 H21          1.6020    -5.5750    -6.6660 ha         1 HB7       0.133000
     55 H22          2.8500    -3.8200    -5.4640 ha         1 HB7       0.133000
     56 H23          1.6310    -2.0800    -4.2130 ha         1 HB7       0.133500
     57 H24         -4.7490     1.8410     0.4600 ha         1 HB7       0.137500
     58 H25         -5.4190     3.3070    -1.4020 ha         1 HB7       0.136000
     59 H26         -5.9160     1.0840    -5.3490 hn         1 HB7       0.320500
     60 H27         -0.9440    -3.1550    -2.2840 hn         1 HB7       0.317500
     61 H28         -6.7450     2.3650    -6.9930 ho         1 HB7       0.395000
     62 C02         -5.8870     2.5820    -3.9630 c          1 HB7       0.688700
@<TRIPOS>BOND
     1    30    62 2
     2    31    26 1
     3    62    26 1
     4    62     8 1
     5     4    28 1
     6     8    25 ar
     7     8     9 ar
     8    25    24 ar
     9     9    10 ar
    10    28     3 1
    11    28     2 1
    12    24    11 ar
    13    10    11 ar
    14    11    12 1
    15     5     2 ar
    16     5     1 ar
    17     2    13 ar
    18    12    27 1
    19     1     6 ar
    20    13    14 ar
    21     6    14 ar
    22     6     7 1
    23    27     7 1
    24    27    15 1
    25     7    32 2
    26    15    16 1
    27    29    16 1
    28    29    17 1
    29    16    33 2
    30    17    18 1
    31    18    19 ar
    32    18    23 ar
    33    19    20 ar
    34    23    22 ar
    35    20    21 ar
    36    22    21 ar
    37     1    34 1
    38     3    35 1
    39     3    36 1
    40     3    37 1
    41     4    38 1
    42     4    39 1
    43     4    40 1
    44     5    41 1
    45     9    42 1
    46    10    43 1
    47    12    44 1
    48    12    45 1
    49    13    46 1
    50    14    47 1
    51    15    48 1
    52    15    49 1
    53    17    50 1
    54    17    51 1
    55    19    52 1
    56    20    53 1
    57    21    54 1
    58    22    55 1
    59    23    56 1
    60    24    57 1
    61    25    58 1
    62    26    59 1
    63    29    60 1
    64    31    61 1
@<TRIPOS>SUBSTRUCTURE
     1 HB7         1 TEMP              0 ****  ****    0 ROOT
