@<TRIPOS>MOLECULE
molecule
   62    66     1     0     0
SMALL
bcc


@<TRIPOS>ATOM
      1 CBB          0.0000     0.0000     0.0000 cc         1 HB9      -0.067000
      2 CBC          1.3740     0.0000     0.0000 cc         1 HB9      -0.174000
      3 CBD          1.9420     0.0000     1.2120 cd         1 HB9      -0.079100
      4 SBH          0.7570     0.0010     2.4400 ss         1 HB9      -0.093800
      5 CAS         -0.5400     0.0000     1.2550 cd         1 HB9      -0.134700
      6 CAR         -1.9740     0.0010     1.5640 c          1 HB9       0.712700
      7 OBA         -2.7910     0.0010     0.6620 o          1 HB9      -0.587100
      8 NAQ         -2.3860     0.0010     2.8460 ns         1 HB9      -0.470100
      9 CAK         -3.7520     0.0960     3.1430 ca         1 HB9       0.015600
     10 CAJ         -4.6860    -0.5010     2.3080 ca         1 HB9      -0.090000
     11 CAL         -4.1720     0.7820     4.2770 ca         1 HB9       0.124900
     12 FAP         -3.2630     1.3600     5.0930 f          1 HB9      -0.134900
     13 CAM         -5.5210     0.8760     4.5700 ca         1 HB9      -0.192000
     14 CAN         -6.4550     0.2860     3.7370 ca         1 HB9       0.138900
     15 FAO         -7.7710     0.3790     4.0260 f          1 HB9      -0.120900
     16 CAI         -6.0380    -0.4060     2.6040 ca         1 HB9       0.101600
     17 NAH         -6.9830    -1.0060     1.7640 nu         1 HB9      -0.690000
     18 CAW         -7.7510    -0.2250     0.9110 ca         1 HB9       0.227600
     19 CAX         -8.6140    -0.8240     0.0080 ca         1 HB9      -0.227000
     20 CAV         -7.6600     1.1660     0.9660 ca         1 HB9      -0.200000
     21 CAA         -8.4270     1.9160     0.1300 ca         1 HB9      -0.034000
     22 CBG         -9.3050     1.3070    -0.7900 ca         1 HB9      -0.207600
     23 CBF        -10.1040     2.2180    -1.6220 c          1 HB9       0.597300
     24 OBE         -9.5680     3.1910    -2.1170 o          1 HB9      -0.516100
     25 CBI         -9.3910    -0.0750    -0.8590 ca         1 HB9       0.009700
     26 CBJ        -10.2280    -0.9020    -1.8010 c3         1 HB9      -0.032100
     27 CBK        -10.8280    -0.1450    -2.9540 c3         1 HB9      -0.045100
     28 CBL        -11.8850     0.8280    -2.5320 ca         1 HB9      -0.035300
     29 CAT        -13.2190     0.5650    -2.8080 ca         1 HB9      -0.140000
     30 CAU        -14.1920     1.4590    -2.4060 ca         1 HB9      -0.093000
     31 CBM        -11.5390     1.9810    -1.8700 ca         1 HB9      -0.154600
     32 CAZ        -12.5070     2.8890    -1.4500 ca         1 HB9      -0.023000
     33 CAY        -13.8460     2.6270    -1.7230 ca         1 HB9      -0.152600
     34 CAB        -14.8950     3.5740    -1.2900 c          1 HB9       0.675700
     35 OAD        -14.5900     4.5900    -0.6960 o          1 HB9      -0.609100
     36 NAC        -16.1910     3.3110    -1.5560 ns         1 HB9      -0.579900
     37 CAE        -17.2310     4.2510    -1.1270 c3         1 HB9       0.118000
     38 CAF        -18.6020     3.7190    -1.5500 c3         1 HB9       0.119400
     39 OAG        -18.8780     2.5040    -0.8500 oh         1 HB9      -0.609800
     40 H1          -0.5960    -0.0000    -0.9050 ha         1 HB9       0.174000
     41 H2           1.9550    -0.0000    -0.9140 ha         1 HB9       0.156000
     42 H3           3.0110     0.0000     1.3890 h4         1 HB9       0.176000
     43 H6          -1.7190    -0.0850     3.5860 hn         1 HB9       0.334500
     44 H7          -4.3600    -1.0390     1.4260 ha         1 HB9       0.189000
     45 H8          -5.8460     1.4110     5.4550 ha         1 HB9       0.167000
     46 H9          -7.1120    -1.9980     1.7850 hn         1 HB9       0.453800
     47 H10         -8.6830    -1.9050    -0.0200 ha         1 HB9       0.128000
     48 H11         -6.8770     1.6340     1.5490 ha         1 HB9       0.144000
     49 H12         -8.3590     2.9960     0.1690 ha         1 HB9       0.147000
     50 H13         -9.5920    -1.6760    -2.2120 hc         1 HB9       0.059700
     51 H14        -11.0430    -1.3280    -1.2290 hc         1 HB9       0.059700
     52 H15        -11.2810    -0.8630    -3.6280 hc         1 HB9       0.060200
     53 H16        -10.0350     0.4100    -3.4410 hc         1 HB9       0.060200
     54 H17        -13.4960    -0.3380    -3.3370 ha         1 HB9       0.135000
     55 H18        -15.2330     1.2510    -2.6200 ha         1 HB9       0.126000
     56 H19        -12.2210     3.7900    -0.9210 ha         1 HB9       0.168000
     57 H20        -16.4390     2.4930    -2.0750 hn         1 HB9       0.320500
     58 H21        -17.2010     4.3560    -0.0500 h1         1 HB9       0.063700
     59 H22        -17.0590     5.2150    -1.5900 h1         1 HB9       0.063700
     60 H23        -18.6030     3.5300    -2.6160 h1         1 HB9       0.030200
     61 H24        -19.3620     4.4530    -1.3130 h1         1 HB9       0.030200
     62 H25        -19.7930     2.2950    -0.9320 ho         1 HB9       0.405000
@<TRIPOS>BOND
     1     1     2 1
     2     1     5 2
     3     2     3 2
     4     3     4 1
     5     4     5 1
     6     5     6 1
     7     6     7 2
     8     6     8 1
     9     8     9 1
    10     9    10 ar
    11     9    11 ar
    12    10    16 ar
    13    11    12 1
    14    11    13 ar
    15    13    14 ar
    16    14    15 1
    17    14    16 ar
    18    16    17 1
    19    17    18 1
    20    18    19 ar
    21    18    20 ar
    22    19    25 ar
    23    20    21 ar
    24    21    22 ar
    25    22    23 1
    26    22    25 ar
    27    23    24 2
    28    23    31 1
    29    25    26 1
    30    26    27 1
    31    27    28 1
    32    28    29 ar
    33    28    31 ar
    34    29    30 ar
    35    30    33 ar
    36    31    32 ar
    37    32    33 ar
    38    33    34 1
    39    34    35 2
    40    34    36 1
    41    36    37 1
    42    37    38 1
    43    38    39 1
    44     1    40 1
    45     2    41 1
    46     3    42 1
    47     8    43 1
    48    10    44 1
    49    13    45 1
    50    17    46 1
    51    19    47 1
    52    20    48 1
    53    21    49 1
    54    26    50 1
    55    26    51 1
    56    27    52 1
    57    27    53 1
    58    29    54 1
    59    30    55 1
    60    32    56 1
    61    36    57 1
    62    37    58 1
    63    37    59 1
    64    38    60 1
    65    38    61 1
    66    39    62 1
@<TRIPOS>SUBSTRUCTURE
     1 HB9         1 TEMP              0 ****  ****    0 ROOT
