@<TRIPOS>MOLECULE
HB9
   62    66     1     0     0
SMALL
bcc


@<TRIPOS>ATOM
      1 CBB          0.0000     0.0000     0.0000 cc         1 HB9      -0.027000
      2 CBC          1.3740     0.0000     0.0000 cc         1 HB9      -0.146000
      3 CBD          1.9420     0.0000     1.2120 cd         1 HB9       0.008900
      4 SBH          0.7570     0.0010     2.4400 ss         1 HB9      -0.223800
      5 CAS         -0.5400     0.0000     1.2550 cd         1 HB9      -0.102700
      6 CAR         -1.9740     0.0010     1.5640 c          1 HB9       0.628700
      7 OBA         -2.7910     0.0010     0.6620 o          1 HB9      -0.632100
      8 NAQ         -2.3860     0.0010     2.8460 ns         1 HB9      -0.024100
      9 CAK         -3.7520     0.0960     3.1430 ca         1 HB9      -0.118400
     10 CAJ         -4.6860    -0.5010     2.3080 ca         1 HB9      -0.064000
     11 CAL         -4.1720     0.7820     4.2770 ca         1 HB9       0.103900
     12 FAP         -3.2630     1.3600     5.0930 f          1 HB9      -0.121900
     13 CAM         -5.5210     0.8760     4.5700 ca         1 HB9      -0.147000
     14 CAN         -6.4550     0.2860     3.7370 ca         1 HB9       0.120900
     15 FAO         -7.7710     0.3790     4.0260 f          1 HB9      -0.115900
     16 CAI         -6.0380    -0.4060     2.6040 ca         1 HB9      -0.028400
     17 NAH         -6.9830    -1.0060     1.7640 nu         1 HB9      -0.244000
     18 CAW         -7.7510    -0.2250     0.9110 ca         1 HB9       0.080600
     19 CAX         -8.6140    -0.8240     0.0080 ca         1 HB9      -0.215000
     20 CAV         -7.6600     1.1660     0.9660 ca         1 HB9      -0.191000
     21 CAA         -8.4270     1.9160     0.1300 ca         1 HB9       0.005000
     22 CBG         -9.3050     1.3070    -0.7900 ca         1 HB9      -0.219600
     23 CBF        -10.1040     2.2180    -1.6220 c          1 HB9       0.659300
     24 OBE         -9.5680     3.1910    -2.1170 o          1 HB9      -0.554100
     25 CBI         -9.3910    -0.0750    -0.8590 ca         1 HB9       0.013700
     26 CBJ        -10.2280    -0.9020    -1.8010 c3         1 HB9       0.033900
     27 CBK        -10.8280    -0.1450    -2.9540 c3         1 HB9       0.015900
     28 CBL        -11.8850     0.8280    -2.5320 ca         1 HB9      -0.040300
     29 CAT        -13.2190     0.5650    -2.8080 ca         1 HB9      -0.114000
     30 CAU        -14.1920     1.4590    -2.4060 ca         1 HB9      -0.073000
     31 CBM        -11.5390     1.9810    -1.8700 ca         1 HB9      -0.161600
     32 CAZ        -12.5070     2.8890    -1.4500 ca         1 HB9       0.017000
     33 CAY        -13.8460     2.6270    -1.7230 ca         1 HB9      -0.165600
     34 CAB        -14.8950     3.5740    -1.2900 c          1 HB9       0.597700
     35 OAD        -14.5900     4.5900    -0.6960 o          1 HB9      -0.651100
     36 NAC        -16.1910     3.3110    -1.5560 ns         1 HB9      -0.193900
     37 CAE        -17.2310     4.2510    -1.1270 c3         1 HB9       0.046000
     38 CAF        -18.6020     3.7190    -1.5500 c3         1 HB9       0.209400
     39 OAG        -18.8780     2.5040    -0.8500 oh         1 HB9      -0.595800
     40 H1          -0.5960    -0.0000    -0.9050 ha         1 HB9       0.141000
     41 H2           1.9550    -0.0000    -0.9140 ha         1 HB9       0.127000
     42 H3           3.0110     0.0000     1.3890 h4         1 HB9       0.152000
     43 H6          -1.7190    -0.0850     3.5860 hn         1 HB9       0.184500
     44 H7          -4.3600    -1.0390     1.4260 ha         1 HB9       0.163000
     45 H8          -5.8460     1.4110     5.4550 ha         1 HB9       0.139000
     46 H9          -7.1120    -1.9980     1.7850 hn         1 HB9       0.290800
     47 H10         -8.6830    -1.9050    -0.0200 ha         1 HB9       0.111000
     48 H11         -6.8770     1.6340     1.5490 ha         1 HB9       0.122000
     49 H12         -8.3590     2.9960     0.1690 ha         1 HB9       0.114000
     50 H13         -9.5920    -1.6760    -2.2120 hc         1 HB9       0.026700
     51 H14        -11.0430    -1.3280    -1.2290 hc         1 HB9       0.026700
     52 H15        -11.2810    -0.8630    -3.6280 hc         1 HB9       0.028200
     53 H16        -10.0350     0.4100    -3.4410 hc         1 HB9       0.028200
     54 H17        -13.4960    -0.3380    -3.3370 ha         1 HB9       0.109000
     55 H18        -15.2330     1.2510    -2.6200 ha         1 HB9       0.101000
     56 H19        -12.2210     3.7900    -0.9210 ha         1 HB9       0.135000
     57 H20        -16.4390     2.4930    -2.0750 hn         1 HB9       0.184500
     58 H21        -17.2010     4.3560    -0.0500 h1         1 HB9       0.033200
     59 H22        -17.0590     5.2150    -1.5900 h1         1 HB9       0.033200
     60 H23        -18.6030     3.5300    -2.6160 h1         1 HB9      -0.007800
     61 H24        -19.3620     4.4530    -1.3130 h1         1 HB9      -0.007800
     62 H25        -19.7930     2.2950    -0.9320 ho         1 HB9       0.395000
@<TRIPOS>BOND
     1     1     2 1   
     2     1     5 2   
     3     1    40 1   
     4     2     3 2   
     5     2    41 1   
     6     3     4 1   
     7     3    42 1   
     8     4     5 1   
     9     5     6 1   
    10     6     7 2   
    11     6     8 1   
    12     8     9 1   
    13     8    43 1   
    14     9    10 ar  
    15     9    11 ar  
    16    10    16 ar  
    17    10    44 1   
    18    11    12 1   
    19    11    13 ar  
    20    13    14 ar  
    21    13    45 1   
    22    14    15 1   
    23    14    16 ar  
    24    16    17 1   
    25    17    18 1   
    26    17    46 1   
    27    18    19 ar  
    28    18    20 ar  
    29    19    25 ar  
    30    19    47 1   
    31    20    21 ar  
    32    20    48 1   
    33    21    22 ar  
    34    21    49 1   
    35    22    23 1   
    36    22    25 ar  
    37    23    24 2   
    38    23    31 1   
    39    25    26 1   
    40    26    27 1   
    41    26    50 1   
    42    26    51 1   
    43    27    28 1   
    44    27    52 1   
    45    27    53 1   
    46    28    29 ar  
    47    28    31 ar  
    48    29    30 ar  
    49    29    54 1   
    50    30    33 ar  
    51    30    55 1   
    52    31    32 ar  
    53    32    33 ar  
    54    32    56 1   
    55    33    34 1   
    56    34    35 2   
    57    34    36 1   
    58    36    37 1   
    59    36    57 1   
    60    37    38 1   
    61    37    58 1   
    62    37    59 1   
    63    38    39 1   
    64    38    60 1   
    65    38    61 1   
    66    39    62 1   
@<TRIPOS>SUBSTRUCTURE
     1 HB9         1 TEMP              0 ****  ****    0 ROOT
