@<TRIPOS>MOLECULE
HBA
   15    15     1     0     0
SMALL
bcc


@<TRIPOS>ATOM
      1 C1'         0.0500    0.0570    0.0150 c         1 HBA      0.580500
      2 O1'         1.2820    0.0300   -0.0270 o         1 HBA     -0.534100
      3 C1         -0.7260   -0.0070    1.2610 ca        1 HBA     -0.235600
      4 C2         -2.1270    0.0290    1.2130 ca        1 HBA     -0.040500
      5 C3         -2.8780   -0.0300    2.3800 ca        1 HBA     -0.202500
      6 C4         -2.2120   -0.1260    3.6150 ca        1 HBA      0.157100
      7 C5         -0.8100   -0.1630    3.6790 ca        1 HBA     -0.202500
      8 C6         -0.0760   -0.1020    2.4990 ca        1 HBA     -0.040500
      9 O4         -3.0060   -0.1800    4.7340 oh        1 HBA     -0.492100
     10 H1'        -0.5580    0.1320   -0.9160 h4        1 HBA     -0.003800
     11 H2         -2.6400    0.1040    0.2410 ha        1 HBA      0.147500
     12 H3         -3.9770   -0.0030    2.3570 ha        1 HBA      0.148000
     13 H5         -0.3000   -0.2380    4.6490 ha        1 HBA      0.148000
     14 H6          1.0260   -0.1300    2.5250 ha        1 HBA      0.147500
     15 HO4        -2.4300   -0.2440    5.5100 ho        1 HBA      0.425000
@<TRIPOS>BOND
     1    1    2 2   
     2    1    3 1   
     3    1   10 1   
     4    3    4 ar  
     5    3    8 ar  
     6    4    5 ar  
     7    4   11 1   
     8    5    6 ar  
     9    5   12 1   
    10    6    7 ar  
    11    6    9 1   
    12    7    8 ar  
    13    7   13 1   
    14    8   14 1   
    15    9   15 1   
@<TRIPOS>SUBSTRUCTURE
     1 HBA         1 TEMP              0 ****  ****    0 ROOT
