@<TRIPOS>MOLECULE
molecule
   15    15     1     0     0
SMALL
bcc


@<TRIPOS>ATOM
      1 C1'          0.0000     0.0000     0.0000 c          1 HBA       0.581500
      2 O1'          1.2120     0.0000     0.0000 o          1 HBA      -0.526100
      3 C1          -0.7360     0.0000     1.2710 ca         1 HBA      -0.212600
      4 C2          -2.1350     0.0010     1.2730 ca         1 HBA      -0.063000
      5 C3          -2.8160     0.0010     2.4620 ca         1 HBA      -0.170000
      6 C4          -2.1200     0.0010     3.6650 ca         1 HBA       0.137100
      7 C5          -0.7290     0.0050     3.6680 ca         1 HBA      -0.170000
      8 C6          -0.0390    -0.0000     2.4850 ca         1 HBA      -0.063000
      9 O4          -2.7990     0.0010     4.8390 oh         1 HBA      -0.522100
     10 H1'         -0.5410     0.0010    -0.9380 h4         1 HBA       0.000200
     11 H2          -2.6790     0.0010     0.3360 ha         1 HBA       0.145500
     12 H3          -3.8990    -0.0000     2.4650 ha         1 HBA       0.145000
     13 H5          -0.1910     0.0050     4.6080 ha         1 HBA       0.145000
     14 H6           1.0440     0.0030     2.4880 ha         1 HBA       0.145500
     15 HO4         -2.9540    -0.8880     5.1130 ho         1 HBA       0.425000
@<TRIPOS>BOND
     1     1     2 2
     2     1     3 1
     3     1    10 1
     4     3     4 ar
     5     3     8 ar
     6     4     5 ar
     7     4    11 1
     8     5     6 ar
     9     5    12 1
    10     6     7 ar
    11     6     9 1
    12     7     8 ar
    13     7    13 1
    14     8    14 1
    15     9    15 1
@<TRIPOS>SUBSTRUCTURE
     1 HBA         1 TEMP              0 ****  ****    0 ROOT
