@<TRIPOS>MOLECULE
HBB
   83    85     1     0     0
SMALL
bcc


@<TRIPOS>ATOM
      1 C1           0.0000     0.0000     0.0000 c3         1 HBB      -0.011300
      2 C2           1.5320     0.0000     0.0000 c3         1 HBB       0.024900
      3 C3           2.0260     0.0000     1.4240 ca         1 HBB      -0.102300
      4 C7           2.3490     1.1430     3.5020 ca         1 HBB      -0.152000
      5 C8           1.9030     1.1410     2.1950 ca         1 HBB      -0.077000
      6 C10          2.2720     0.4780     6.1280 c3         1 HBB       0.172400
      7 C11          1.3460    -0.6870     6.4850 c3         1 HBB      -0.059400
      8 C12         -0.1080    -0.2160     6.4410 c3         1 HBB      -0.097400
      9 C13         -0.8000    -0.8330     5.2520 c          1 HBB       0.578100
     10 C16         -2.0230    -0.6870     3.1800 c3         1 HBB      -0.070300
     11 C20         -1.5310    -0.0630     1.8980 c          1 HBB       0.576100
     12 N26         -2.5300    -1.6990    -2.2500 n3         1 HBB      -0.517500
     13 C27         -2.6750    -1.1900    -3.6160 c3         1 HBB       0.223800
     14 C30         -5.6500     0.4850    -5.3930 c3         1 HBB       0.003900
     15 C31         -3.2080     0.9740    -5.6010 c3         1 HBB       0.003900
     16 C35         -1.4620    -4.2370    -2.1390 ca         1 HBB      -0.163500
     17 C4           2.5990    -1.1390     1.9560 ca         1 HBB      -0.077000
     18 C5           3.0470    -1.1420     3.2630 ca         1 HBB      -0.152000
     19 C6           2.9210    -0.0000     4.0420 ca         1 HBB       0.119100
     20 O9           3.3550    -0.0000     5.3290 os         1 HBB      -0.295900
     21 O14         -0.8540    -2.0380     5.1260 o          1 HBB      -0.636100
     22 N15         -1.3650    -0.0130     4.3190 ns         1 HBB      -0.196900
     23 C17         -3.5390    -0.5160     3.2880 c3         1 HBB      -0.060700
     24 C18         -4.0170    -1.0510     4.6390 c3         1 HBB      -0.006100
     25 O21         -2.0810     0.9220     1.4540 o          1 HBB      -0.651100
     26 N22         -0.4820    -0.6000     1.2460 ns         1 HBB      -0.180900
     27 C23         -0.5110    -0.8140    -1.1910 c3         1 HBB       0.145100
     28 O24         -0.0380    -0.2290    -2.4060 oh         1 HBB      -0.575800
     29 C25         -2.0410    -0.8160    -1.1880 c3         1 HBB       0.198800
     30 C28         -4.0350    -0.5040    -3.7630 c3         1 HBB      -0.053400
     31 C29         -4.2420    -0.0890    -5.2210 c3         1 HBB      -0.048700
     32 S32         -2.9180    -3.2720    -1.9070 sy         1 HBB       1.049200
     33 O33         -3.1870    -3.3070    -0.5120 o          1 HBB      -0.588300
     34 O34         -3.8180    -3.6790    -2.9280 o          1 HBB      -0.588300
     35 C36         -0.5920    -4.4390    -1.0840 ca         1 HBB       0.001000
     36 C37          0.5500    -5.1960    -1.2660 ca         1 HBB      -0.134000
     37 C38          0.8220    -5.7510    -2.5020 ca         1 HBB      -0.048000
     38 C39         -0.0490    -5.5500    -3.5560 ca         1 HBB      -0.134000
     39 C40         -1.1940    -4.7960    -3.3740 ca         1 HBB       0.001000
     40 H1          -0.3620     1.0180    -0.0760 h1         1 HBB       0.081700
     41 H21          1.8940    -0.8850    -0.5090 hc         1 HBB       0.024200
     42 H22A         1.8940     0.8850    -0.5090 hc         1 HBB       0.024200
     43 H7           2.3230     2.0590     4.0810 ha         1 HBB       0.119500
     44 H8           1.8170     2.1930     1.9500 ha         1 HBB       0.112500
     45 H101         2.6610     0.9210     7.0370 h1         1 HBB       0.021700
     46 H102         1.7160     1.2240     5.5730 h1         1 HBB       0.021700
     47 H111         1.5810    -1.0420     7.4810 hc         1 HBB       0.040200
     48 H112         1.4870    -1.4900     5.7720 hc         1 HBB       0.040200
     49 H121        -0.6140    -0.5200     7.3500 hc         1 HBB       0.031200
     50 H122        -0.1370     0.8630     6.3560 hc         1 HBB       0.031200
     51 H16         -1.7740    -1.7410     3.1890 h1         1 HBB       0.084700
     52 H191        -4.1990    -0.7030     1.2510 hc         1 HBB       0.011867
     53 H192        -5.2510    -1.4940     2.4330 hc         1 HBB       0.011867
     54 H193        -3.7010    -2.2270     1.9980 hc         1 HBB       0.011867
     55 H271        -1.8860    -0.4760    -3.8210 h1         1 HBB       0.028700
     56 H272        -2.6080    -2.0130    -4.3170 h1         1 HBB       0.028700
     57 H301        -6.3810    -0.2570    -5.0940 hc         1 HBB       0.002867
     58 H302        -5.7580     1.3680    -4.7760 hc         1 HBB       0.002867
     59 H303        -5.8080     0.7480    -6.4320 hc         1 HBB       0.002867
     60 H311        -3.5330     1.4900    -6.4970 hc         1 HBB       0.002867
     61 H312        -3.1070     1.6860    -4.7910 hc         1 HBB       0.002867
     62 H313        -2.2520     0.4980    -5.7850 hc         1 HBB       0.002867
     63 H4           2.7420    -2.0140     1.3340 ha         1 HBB       0.112500
     64 H5           3.5620    -2.0110     3.6560 ha         1 HBB       0.119500
     65 H15         -1.6260     0.9210     4.5660 hn         1 HBB       0.188500
     66 H17         -3.7910     0.5350     3.2070 hc         1 HBB       0.044700
     67 H181        -5.0950    -1.1610     4.6230 hc         1 HBB       0.011867
     68 H182        -3.7370    -0.3580     5.4230 hc         1 HBB       0.011867
     69 H183        -3.5590    -2.0140     4.8290 hc         1 HBB       0.011867
     70 H22         -0.0350    -1.4180     1.6110 hn         1 HBB       0.188500
     71 H23         -0.1480    -1.8320    -1.1150 h1         1 HBB       0.003700
     72 H24          0.6780    -0.7420    -2.7440 ho         1 HBB       0.389000
     73 H251        -2.4000    -1.1720    -0.2300 h1         1 HBB       0.054700
     74 H252        -2.4040     0.1900    -1.3590 h1         1 HBB       0.054700
     75 H281        -4.8190    -1.1900    -3.4680 hc         1 HBB       0.028200
     76 H282        -4.0660     0.3750    -3.1300 hc         1 HBB       0.028200
     77 H29         -4.1240    -0.9540    -5.8630 hc         1 HBB       0.026700
     78 H36         -0.8050    -4.0040    -0.1150 ha         1 HBB       0.123000
     79 H37          1.2330    -5.3540    -0.4400 ha         1 HBB       0.109500
     80 H38          1.7180    -6.3430    -2.6450 ha         1 HBB       0.103000
     81 H39          0.1630    -5.9870    -4.5250 ha         1 HBB       0.109500
     82 H40         -1.8760    -4.6380    -4.2000 ha         1 HBB       0.123000
     83 C19         -4.2230    -1.2920     2.1600 c3         1 HBB      -0.006100
@<TRIPOS>BOND
     1     1     2 1   
     2     1    26 1   
     3     1    27 1   
     4     1    40 1   
     5     2     3 1   
     6     2    41 1   
     7     2    42 1   
     8     3     5 ar  
     9     3    17 ar  
    10     4     5 ar  
    11     4    19 ar  
    12     4    43 1   
    13     5    44 1   
    14     6     7 1   
    15     6    20 1   
    16     6    45 1   
    17     6    46 1   
    18     7     8 1   
    19     7    47 1   
    20     7    48 1   
    21     8     9 1   
    22     8    49 1   
    23     8    50 1   
    24     9    21 2   
    25     9    22 1   
    26    10    11 1   
    27    10    22 1   
    28    10    23 1   
    29    10    51 1   
    30    11    25 2   
    31    11    26 1   
    32    12    13 1   
    33    12    29 1   
    34    12    32 1   
    35    13    30 1   
    36    13    55 1   
    37    13    56 1   
    38    14    31 1   
    39    14    57 1   
    40    14    58 1   
    41    14    59 1   
    42    15    31 1   
    43    15    60 1   
    44    15    61 1   
    45    15    62 1   
    46    16    32 1   
    47    16    35 ar  
    48    16    39 ar  
    49    17    18 ar  
    50    17    63 1   
    51    18    19 ar  
    52    18    64 1   
    53    19    20 1   
    54    22    65 1   
    55    23    24 1   
    56    23    66 1   
    57    23    83 1   
    58    24    67 1   
    59    24    68 1   
    60    24    69 1   
    61    26    70 1   
    62    27    28 1   
    63    27    29 1   
    64    27    71 1   
    65    28    72 1   
    66    29    73 1   
    67    29    74 1   
    68    30    31 1   
    69    30    75 1   
    70    30    76 1   
    71    31    77 1   
    72    32    33 2   
    73    32    34 2   
    74    35    36 ar  
    75    35    78 1   
    76    36    37 ar  
    77    36    79 1   
    78    37    38 ar  
    79    37    80 1   
    80    38    39 ar  
    81    38    81 1   
    82    39    82 1   
    83    52    83 1   
    84    53    83 1   
    85    54    83 1   
@<TRIPOS>SUBSTRUCTURE
     1 HBB         1 TEMP              0 ****  ****    0 ROOT
