@<TRIPOS>MOLECULE
HBC
   44    47     1     0     0
SMALL
bcc


@<TRIPOS>ATOM
      1 C1           0.0000     0.0000     0.0000 ca         1 HBC      -0.219600
      2 C2           1.3990     0.0000     0.0000 ca         1 HBC      -0.062000
      3 C3           2.0850     0.0000     1.1960 ca         1 HBC      -0.089500
      4 C4           1.3930    -0.0010     2.3950 ca         1 HBC      -0.036000
      5 C5           0.0090    -0.0020     2.4020 ca         1 HBC      -0.089500
      6 C6          -0.6910     0.0050     1.2140 ca         1 HBC      -0.062000
      7 C7          -2.7730     0.2450    -2.7340 c3         1 HBC      -0.041700
      8 C8          -4.2640     0.6730    -2.5810 c3         1 HBC      -0.044400
      9 C9          -4.9640    -0.5610    -1.9710 c3         1 HBC      -0.035400
     10 C10         -3.8300    -1.6200    -1.8150 c3         1 HBC      -0.032700
     11 C11         -2.9220    -1.2800    -3.0700 c3         1 HBC      -0.033400
     12 C12         -2.9200    -1.0790    -0.6710 c3         1 HBC       0.031600
     13 C13         -2.2350     0.1680    -1.2740 c3         1 HBC      -0.198800
     14 N1          -2.6160     1.3730    -0.5250 nz         1 HBC       0.032400
     15 C14         -0.7390     0.0000    -1.2720 c          1 HBC       0.635700
     16 O1          -0.1430    -0.1340    -2.3190 o          1 HBC      -0.493100
     17 C15         -1.9900    -2.7160     0.9780 ca         1 HBC      -0.119500
     18 C16         -1.9090    -2.1200    -0.2670 ca         1 HBC      -0.137300
     19 C17         -0.9050    -2.4840    -1.1430 ca         1 HBC      -0.119500
     20 C18          0.0250    -3.4370    -0.7700 ca         1 HBC      -0.076500
     21 C19         -0.0550    -4.0320     0.4750 ca         1 HBC      -0.074000
     22 C20         -1.0620    -3.6720     1.3480 ca         1 HBC      -0.076500
     23 H21          1.9420    -0.0020    -0.9370 ha         1 HBC       0.107500
     24 H31          3.1680     0.0000     1.1980 ha         1 HBC       0.123000
     25 H41          1.9370    -0.0040     3.3310 ha         1 HBC       0.121000
     26 H51         -0.5260    -0.0000     3.3440 ha         1 HBC       0.123000
     27 H61         -1.7750     0.0050     1.2220 ha         1 HBC       0.107500
     28 H71         -2.1800     0.8240    -3.4310 hc         1 HBC       0.086700
     29 H81         -4.6900     0.9100    -3.5480 hc         1 HBC       0.018700
     30 H82         -4.3460     1.5220    -1.9120 hc         1 HBC       0.018700
     31 H91         -5.3880    -0.3160    -1.0050 hc         1 HBC       0.033200
     32 H92         -5.7340    -0.9280    -2.6400 hc         1 HBC       0.033200
     33 H10         -4.1460    -2.6530    -1.7270 hc         1 HBC       0.084700
     34 H111        -3.4460    -1.4400    -4.0040 hc         1 HBC       0.060200
     35 H112        -1.9710    -1.7980    -3.0350 hc         1 HBC       0.060200
     36 H12         -3.5240    -0.7950     0.1820 hc         1 HBC       0.035700
     37 HN11        -1.8750     1.6260     0.1000 hn         1 HBC       0.239133
     38 HN12        -2.7830     2.1250    -1.1640 hn         1 HBC       0.239133
     39 H15         -2.7830    -2.4370     1.6620 ha         1 HBC       0.126500
     40 H17         -0.8250    -1.9970    -2.1070 ha         1 HBC       0.126500
     41 H18          0.8150    -3.7200    -1.4560 ha         1 HBC       0.118500
     42 H19          0.6590    -4.7960     0.7570 ha         1 HBC       0.118000
     43 H20         -1.2430    -4.2980     2.2130 ha         1 HBC       0.118500
     44 H13         -3.4510     1.1930    -0.0040 hn         1 HBC       0.239133
@<TRIPOS>BOND
     1     1     2 ar  
     2     1     6 ar  
     3     1    15 1   
     4     2     3 ar  
     5     2    23 1   
     6     3     4 ar  
     7     3    24 1   
     8     4     5 ar  
     9     4    25 1   
    10     5     6 ar  
    11     5    26 1   
    12     6    27 1   
    13     7     8 1   
    14     7    11 1   
    15     7    13 1   
    16     7    28 1   
    17     8     9 1   
    18     8    29 1   
    19     8    30 1   
    20     9    10 1   
    21     9    31 1   
    22     9    32 1   
    23    10    11 1   
    24    10    12 1   
    25    10    33 1   
    26    11    34 1   
    27    11    35 1   
    28    12    13 1   
    29    12    18 1   
    30    12    36 1   
    31    13    14 1   
    32    13    15 1   
    33    14    37 1   
    34    14    38 1   
    35    14    44 1   
    36    15    16 2   
    37    17    18 ar  
    38    17    22 ar  
    39    17    39 1   
    40    18    19 ar  
    41    19    20 ar  
    42    19    40 1   
    43    20    21 ar  
    44    20    41 1   
    45    21    22 ar  
    46    21    42 1   
    47    22    43 1   
@<TRIPOS>SUBSTRUCTURE
     1 HBC         1 TEMP              0 ****  ****    0 ROOT
