@<TRIPOS>MOLECULE
molecule
   18    18     1     0     0
SMALL
bcc


@<TRIPOS>ATOM
      1 C1           0.0000     0.0000     0.0000 ca         1 HBD      -0.234600
      2 C2           1.3970     0.0000     0.0000 ca         1 HBD      -0.050500
      3 C3           2.0830     0.0000     1.1940 ca         1 HBD      -0.149500
      4 C4           1.3890     0.0000     2.3960 ca         1 HBD       0.201100
      5 C5          -0.0020     0.0000     2.4010 ca         1 HBD      -0.149500
      6 C6          -0.6950     0.0050     1.2110 ca         1 HBD      -0.050500
      7 C1'         -0.7400    -0.0020    -1.2780 c          1 HBD       0.508700
      8 O1'         -0.1330    -0.0010    -2.3310 o          1 HBD      -0.420100
      9 N1'         -2.0860    -0.0010    -1.2760 nz         1 HBD      -0.678400
     10 O4           2.0680     0.0010     3.5710 oh         1 HBD      -0.502100
     11 H2           1.9390    -0.0020    -0.9380 ha         1 HBD       0.143000
     12 H3           3.1670    -0.0000     1.1950 ha         1 HBD       0.176500
     13 H5          -0.5400     0.0020     3.3410 ha         1 HBD       0.176500
     14 H6          -1.7780     0.0050     1.2140 ha         1 HBD       0.143000
     15 HN'1        -2.4210    -0.0040    -2.2190 hn         1 HBD       0.477800
     16 HN'2        -2.4200    -0.8170    -0.8020 hn         1 HBD       0.477800
     17 HO4          2.2270    -0.8880     3.8430 ho         1 HBD       0.452000
     18 H1'3        -2.4190     0.8100    -0.7940 hn         1 HBD       0.477800
@<TRIPOS>BOND
     1     1     2 ar
     2     1     6 ar
     3     1     7 1
     4     2     3 ar
     5     2    11 1
     6     3     4 ar
     7     3    12 1
     8     4     5 ar
     9     4    10 1
    10     5     6 ar
    11     5    13 1
    12     6    14 1
    13     7     8 2
    14     7     9 1
    15     9    15 1
    16     9    16 1
    17    10    17 1
    18    18     9 1
@<TRIPOS>SUBSTRUCTURE
     1 HBD         1 TEMP              0 ****  ****    0 ROOT
