@<TRIPOS>MOLECULE
HBG
   63    65     1     0     0
SMALL
bcc


@<TRIPOS>ATOM
      1 C01          0.0000     0.0000     0.0000 c3         1 HBG       0.061200
      2 C02          1.5070     0.0000     0.0000 ca         1 HBG      -0.093800
      3 C03          2.1970     0.0000     1.1990 ca         1 HBG      -0.087000
      4 C04          3.5810    -0.0000     1.2080 ca         1 HBG      -0.093800
      5 C05          4.3250     0.0000     2.5190 c3         1 HBG       0.061200
      6 C06          4.2820    -0.0020     0.0200 ca         1 HBG      -0.088000
      7 C07          3.5910    -0.0020    -1.1940 ca         1 HBG      -0.141600
      8 C08          4.3360    -0.0030    -2.4710 c          1 HBG       0.619700
      9 C11          2.9500     1.8570    -3.2160 c3         1 HBG      -0.044000
     10 C12          1.6390     1.3580    -3.7690 c          1 HBG       0.546100
     11 C15         -0.7430     1.6320    -4.2030 c3         1 HBG       0.015700
     12 C16         -1.6430     2.8230    -4.5350 c3         1 HBG      -0.043400
     13 C17         -2.9740     2.3160    -5.0970 c3         1 HBG      -0.016900
     14 C18         -3.6620     1.4310    -4.0550 c3         1 HBG      -0.028400
     15 C19         -2.7610     0.2390    -3.7240 c3         1 HBG      -0.016900
     16 C20         -1.4310     0.7460    -3.1630 c3         1 HBG      -0.043400
     17 C21          4.6620     0.7860    -4.7530 c3         1 HBG       0.109300
     18 C22          5.8740     1.6790    -4.7410 ca         1 HBG      -0.103300
     19 C23          7.1000     1.1730    -4.3440 ca         1 HBG      -0.096000
     20 C24          8.2140     1.9850    -4.3310 ca         1 HBG      -0.064500
     21 C25          8.1050     3.3210    -4.7210 ca         1 HBG      -0.151600
     22 C26          9.2950     4.1970    -4.7110 c          1 HBG       0.595700
     23 C30          6.8670     3.8250    -5.1220 ca         1 HBG      -0.064500
     24 C31          5.7610     3.0010    -5.1350 ca         1 HBG      -0.096000
     25 C32          2.1960    -0.0060    -1.1960 ca         1 HBG      -0.088000
     26 N10          3.9920     0.8550    -3.4510 n          1 HBG      -0.111800
     27 N14          0.5310     2.1170    -3.6660 ns         1 HBG      -0.186900
     28 N28          9.1860     5.4870    -5.0880 ns         1 HBG      -0.063400
     29 O09          5.2580    -0.7780    -2.6360 o          1 HBG      -0.639100
     30 O13          1.5820     0.2720    -4.3070 o          1 HBG      -0.638100
     31 O27         10.3730     3.7550    -4.3610 o          1 HBG      -0.617100
     32 O29         10.3270     6.3260    -5.0770 oh         1 HBG      -0.436100
     33 H1          -0.3610     1.0040    -0.1850 hc         1 HBG       0.009367
     34 H2          -0.3610    -0.3420     0.9630 hc         1 HBG       0.009367
     35 H3          -0.3610    -0.6630    -0.7770 hc         1 HBG       0.009367
     36 H4           1.6520    -0.0000     2.1360 ha         1 HBG       0.109000
     37 H5           4.3560    -1.0070     2.9170 hc         1 HBG       0.009367
     38 H6           5.3350     0.3570     2.3620 hc         1 HBG       0.009367
     39 H7           3.8180     0.6500     3.2220 hc         1 HBG       0.009367
     40 H8           5.3650    -0.0020     0.0280 ha         1 HBG       0.129500
     41 H9           3.2200     2.7820    -3.7100 h1         1 HBG       0.048200
     42 H10          2.8490     2.0310    -2.1520 h1         1 HBG       0.048200
     43 H11         -0.5650     1.0550    -5.1030 h1         1 HBG       0.061700
     44 H12         -1.1560     3.4480    -5.2740 hc         1 HBG       0.021200
     45 H13         -1.8280     3.3970    -3.6350 hc         1 HBG       0.021200
     46 H14         -2.7890     1.7390    -5.9940 hc         1 HBG       0.017700
     47 H15         -3.6120     3.1610    -5.3290 hc         1 HBG       0.017700
     48 H16         -3.8420     2.0070    -3.1560 hc         1 HBG       0.015200
     49 H17         -4.6020     1.0700    -4.4540 hc         1 HBG       0.015200
     50 H18         -2.5760    -0.3340    -4.6240 hc         1 HBG       0.017700
     51 H19         -3.2480    -0.3860    -2.9850 hc         1 HBG       0.017700
     52 H20         -0.7940    -0.0980    -2.9300 hc         1 HBG       0.021200
     53 H21         -1.6160     1.3240    -2.2650 hc         1 HBG       0.021200
     54 H22          3.9790     1.1130    -5.5280 h1         1 HBG       0.043200
     55 H23          4.9670    -0.2350    -4.9490 h1         1 HBG       0.043200
     56 H24          7.1830     0.1360    -4.0420 ha         1 HBG       0.118500
     57 H25          9.1720     1.5870    -4.0200 ha         1 HBG       0.114000
     58 H26          6.7760     4.8600    -5.4280 ha         1 HBG       0.114000
     59 H27          4.7990     3.3910    -5.4470 ha         1 HBG       0.118500
     60 H28          1.6540    -0.0060    -2.1340 ha         1 HBG       0.129500
     61 H29          0.5850     3.0270    -3.2520 hn         1 HBG       0.173500
     62 H30          8.3070     5.8420    -5.4070 hn         1 HBG       0.160500
     63 H31         10.0600     7.2200    -5.2110 ho         1 HBG       0.390000
@<TRIPOS>BOND
     1     1     2 1   
     2     1    33 1   
     3     1    34 1   
     4     1    35 1   
     5     2     3 ar  
     6     2    25 ar  
     7     3     4 ar  
     8     3    36 1   
     9     4     5 1   
    10     4     6 ar  
    11     5    37 1   
    12     5    38 1   
    13     5    39 1   
    14     6     7 ar  
    15     6    40 1   
    16     7     8 1   
    17     7    25 ar  
    18     8    26 1   
    19     8    29 2   
    20     9    10 1   
    21     9    26 1   
    22     9    41 1   
    23     9    42 1   
    24    10    27 1   
    25    10    30 2   
    26    11    12 1   
    27    11    16 1   
    28    11    27 1   
    29    11    43 1   
    30    12    13 1   
    31    12    44 1   
    32    12    45 1   
    33    13    14 1   
    34    13    46 1   
    35    13    47 1   
    36    14    15 1   
    37    14    48 1   
    38    14    49 1   
    39    15    16 1   
    40    15    50 1   
    41    15    51 1   
    42    16    52 1   
    43    16    53 1   
    44    17    18 1   
    45    17    26 1   
    46    17    54 1   
    47    17    55 1   
    48    18    19 ar  
    49    18    24 ar  
    50    19    20 ar  
    51    19    56 1   
    52    20    21 ar  
    53    20    57 1   
    54    21    22 1   
    55    21    23 ar  
    56    22    28 1   
    57    22    31 2   
    58    23    24 ar  
    59    23    58 1   
    60    24    59 1   
    61    25    60 1   
    62    27    61 1   
    63    28    32 1   
    64    28    62 1   
    65    32    63 1   
@<TRIPOS>SUBSTRUCTURE
     1 HBG         1 TEMP              0 ****  ****    0 ROOT
