@<TRIPOS>MOLECULE
molecule
   63    65     1     0     0
SMALL
bcc


@<TRIPOS>ATOM
      1 C01          0.0000     0.0000     0.0000 c3         1 HBG      -0.047800
      2 C02          1.5070     0.0000     0.0000 ca         1 HBG      -0.088300
      3 C03          2.1970     0.0000     1.1990 ca         1 HBG      -0.111000
      4 C04          3.5810    -0.0000     1.2080 ca         1 HBG      -0.088300
      5 C05          4.3250     0.0000     2.5190 c3         1 HBG      -0.047800
      6 C06          4.2820    -0.0020     0.0200 ca         1 HBG      -0.103000
      7 C07          3.5910    -0.0020    -1.1940 ca         1 HBG      -0.139600
      8 C08          4.3360    -0.0030    -2.4710 c          1 HBG       0.689700
      9 C11          2.9500     1.8570    -3.2160 c3         1 HBG       0.023000
     10 C12          1.6390     1.3580    -3.7690 c          1 HBG       0.628100
     11 C15         -0.7430     1.6320    -4.2030 c3         1 HBG       0.115700
     12 C16         -1.6430     2.8230    -4.5350 c3         1 HBG      -0.094400
     13 C17         -2.9740     2.3160    -5.0970 c3         1 HBG      -0.076900
     14 C18         -3.6620     1.4310    -4.0550 c3         1 HBG      -0.083400
     15 C19         -2.7610     0.2390    -3.7240 c3         1 HBG      -0.076900
     16 C20         -1.4310     0.7460    -3.1630 c3         1 HBG      -0.094400
     17 C21          4.6620     0.7860    -4.7530 c3         1 HBG       0.158300
     18 C22          5.8740     1.6790    -4.7410 ca         1 HBG      -0.091300
     19 C23          7.1000     1.1730    -4.3440 ca         1 HBG      -0.121500
     20 C24          8.2140     1.9850    -4.3310 ca         1 HBG      -0.091000
     21 C25          8.1050     3.3210    -4.7210 ca         1 HBG      -0.136600
     22 C26          9.2950     4.1970    -4.7110 c          1 HBG       0.686700
     23 C30          6.8670     3.8250    -5.1220 ca         1 HBG      -0.091000
     24 C31          5.7610     3.0010    -5.1350 ca         1 HBG      -0.121500
     25 C32          2.1960    -0.0060    -1.1960 ca         1 HBG      -0.103000
     26 N10          3.9920     0.8550    -3.4510 n          1 HBG      -0.462800
     27 N14          0.5310     2.1170    -3.6660 ns         1 HBG      -0.583900
     28 N28          9.1860     5.4870    -5.0880 ns         1 HBG      -0.472400
     29 O09          5.2580    -0.7780    -2.6360 o          1 HBG      -0.596100
     30 O13          1.5820     0.2720    -4.3070 o          1 HBG      -0.597100
     31 O27         10.3730     3.7550    -4.3610 o          1 HBG      -0.572100
     32 O29         10.3270     6.3260    -5.0770 oh         1 HBG      -0.360100
     33 H1          -0.3610     1.0040    -0.1850 hc         1 HBG       0.045033
     34 H2          -0.3610    -0.3420     0.9630 hc         1 HBG       0.045033
     35 H3          -0.3610    -0.6630    -0.7770 hc         1 HBG       0.045033
     36 H4           1.6520    -0.0000     2.1360 ha         1 HBG       0.133000
     37 H5           4.3560    -1.0070     2.9170 hc         1 HBG       0.045033
     38 H6           5.3350     0.3570     2.3620 hc         1 HBG       0.045033
     39 H7           3.8180     0.6500     3.2220 hc         1 HBG       0.045033
     40 H8           5.3650    -0.0020     0.0280 ha         1 HBG       0.151000
     41 H9           3.2200     2.7820    -3.7100 h1         1 HBG       0.075700
     42 H10          2.8490     2.0310    -2.1520 h1         1 HBG       0.075700
     43 H11         -0.5650     1.0550    -5.1030 h1         1 HBG       0.082700
     44 H12         -1.1560     3.4480    -5.2740 hc         1 HBG       0.046950
     45 H13         -1.8280     3.3970    -3.6350 hc         1 HBG       0.046950
     46 H14         -2.7890     1.7390    -5.9940 hc         1 HBG       0.046700
     47 H15         -3.6120     3.1610    -5.3290 hc         1 HBG       0.046700
     48 H16         -3.8420     2.0070    -3.1560 hc         1 HBG       0.043200
     49 H17         -4.6020     1.0700    -4.4540 hc         1 HBG       0.043200
     50 H18         -2.5760    -0.3340    -4.6240 hc         1 HBG       0.046700
     51 H19         -3.2480    -0.3860    -2.9850 hc         1 HBG       0.046700
     52 H20         -0.7940    -0.0980    -2.9300 hc         1 HBG       0.046950
     53 H21         -1.6160     1.3240    -2.2650 hc         1 HBG       0.046950
     54 H22          3.9790     1.1130    -5.5280 h1         1 HBG       0.074700
     55 H23          4.9670    -0.2350    -4.9490 h1         1 HBG       0.074700
     56 H24          7.1830     0.1360    -4.0420 ha         1 HBG       0.145500
     57 H25          9.1720     1.5870    -4.0200 ha         1 HBG       0.140500
     58 H26          6.7760     4.8600    -5.4280 ha         1 HBG       0.140500
     59 H27          4.7990     3.3910    -5.4470 ha         1 HBG       0.145500
     60 H28          1.6540    -0.0060    -2.1340 ha         1 HBG       0.151000
     61 H29          0.5850     3.0270    -3.2520 hn         1 HBG       0.312500
     62 H30          8.3070     5.8420    -5.4070 hn         1 HBG       0.320500
     63 H31         10.0600     7.2200    -5.2110 ho         1 HBG       0.397000
@<TRIPOS>BOND
     1    14    13 1
     2    14    15 1
     3    13    12 1
     4    15    16 1
     5    12    11 1
     6    16    11 1
     7    11    27 1
     8     1     2 1
     9    27    10 1
    10     2    25 ar
    11     2     3 ar
    12    10    30 2
    13    10     9 1
    14    25     7 ar
    15    17    26 1
    16    17    18 1
    17    24    18 ar
    18    24    23 ar
    19    26     9 1
    20    26     8 1
    21    18    19 ar
    22    23    21 ar
    23     3     4 ar
    24     7     8 1
    25     7     6 ar
    26     8    29 2
    27    19    20 ar
    28    21    20 ar
    29    21    22 1
    30     6     4 ar
    31     4     5 1
    32    31    22 2
    33    22    28 1
    34    28    32 1
    35     1    33 1
    36     1    34 1
    37     1    35 1
    38     3    36 1
    39     5    37 1
    40     5    38 1
    41     5    39 1
    42     6    40 1
    43     9    41 1
    44     9    42 1
    45    11    43 1
    46    12    44 1
    47    12    45 1
    48    13    46 1
    49    13    47 1
    50    14    48 1
    51    14    49 1
    52    15    50 1
    53    15    51 1
    54    16    52 1
    55    16    53 1
    56    17    54 1
    57    17    55 1
    58    19    56 1
    59    20    57 1
    60    23    58 1
    61    24    59 1
    62    25    60 1
    63    27    61 1
    64    28    62 1
    65    32    63 1
@<TRIPOS>SUBSTRUCTURE
     1 HBG         1 TEMP              0 ****  ****    0 ROOT
