@<TRIPOS>MOLECULE
molecule
   82    84     1     0     0
SMALL
bcc


@<TRIPOS>ATOM
      1 C1           0.0000     0.0000     0.0000 c3         1 HBH       0.087700
      2 C2           1.5300     0.0000     0.0000 c3         1 HBH      -0.045100
      3 C3           2.0250     0.0000     1.4240 ca         1 HBH      -0.109300
      4 C7           2.3470     1.1440     3.5030 ca         1 HBH      -0.160000
      5 C8           1.9020     1.1410     2.1950 ca         1 HBH      -0.106500
      6 C10          2.2690     0.4800     6.1290 c3         1 HBH       0.115400
      7 C11          1.3450    -0.6860     6.4860 c3         1 HBH      -0.104400
      8 C12         -0.1110    -0.2160     6.4410 c3         1 HBH      -0.150400
      9 C13         -0.8020    -0.8320     5.2520 c          1 HBH       0.652100
     10 C16         -2.0240    -0.6860     3.1790 c3         1 HBH       0.034700
     11 C20         -1.5330    -0.0640     1.8980 c          1 HBH       0.661100
     12 N26         -2.5300    -1.6960    -2.2540 n3         1 HBH      -0.812500
     13 C27         -2.6780    -1.1830    -3.6180 c3         1 HBH       0.232800
     14 C30         -5.6590     0.4900    -5.3850 c3         1 HBH      -0.089100
     15 C31         -3.2180     0.9840    -5.5960 c3         1 HBH      -0.089100
     16 C35         -1.4580    -4.2320    -2.1510 ca         1 HBH      -0.316500
     17 C4           2.5980    -1.1400     1.9580 ca         1 HBH      -0.106500
     18 C5           3.0460    -1.1420     3.2650 ca         1 HBH      -0.160000
     19 C6           2.9190     0.0000     4.0420 ca         1 HBH       0.104100
     20 O9           3.3530     0.0010     5.3290 os         1 HBH      -0.300900
     21 O14         -0.8550    -2.0370     5.1260 o          1 HBH      -0.576100
     22 N15         -1.3660    -0.0130     4.3190 ns         1 HBH      -0.583900
     23 C17         -3.5410    -0.5160     3.2870 c3         1 HBH      -0.168400
     24 C18         -4.0400    -1.2320     4.5150 c          1 HBH       0.465100
     25 O19         -3.2610    -1.8220     5.2330 o          1 HBH      -0.367100
     26 N19         -5.3540    -1.2180     4.8160 nz         1 HBH      -0.685400
     27 O21         -2.0820     0.9220     1.4540 o          1 HBH      -0.616100
     28 N22         -0.4830    -0.6010     1.2460 ns         1 HBH      -0.546900
     29 C23         -0.5110    -0.8140    -1.1910 c3         1 HBH       0.109100
     30 O24         -0.0370    -0.2300    -2.4060 oh         1 HBH      -0.587800
     31 C25         -2.0410    -0.8170    -1.1890 c3         1 HBH       0.233800
     32 C28         -4.0390    -0.4990    -3.7600 c3         1 HBH      -0.095400
     33 C29         -4.2490    -0.0810    -5.2170 c3         1 HBH      -0.074700
     34 S32         -2.9150    -3.2710    -1.9150 sy         1 HBH       1.428200
     35 O33         -3.1820    -3.3120    -0.5190 o          1 HBH      -0.648300
     36 O34         -3.8150    -3.6760    -2.9370 o          1 HBH      -0.648300
     37 C36         -0.5860    -4.4370    -1.0990 ca         1 HBH      -0.038000
     38 C37          0.5580    -5.1910    -1.2840 ca         1 HBH      -0.148000
     39 C38          0.8290    -5.7410    -2.5230 ca         1 HBH      -0.069000
     40 C39         -0.0430    -5.5380    -3.5760 ca         1 HBH      -0.148000
     41 C40         -1.1890    -4.7870    -3.3890 ca         1 HBH      -0.038000
     42 H1          -0.3620     1.0180    -0.0760 h1         1 HBH       0.106700
     43 H21          1.8930     0.8850    -0.5090 hc         1 HBH       0.064700
     44 H22A         1.8930    -0.8850    -0.5090 hc         1 HBH       0.064700
     45 H7           2.3390     2.0640     4.0740 ha         1 HBH       0.147500
     46 H8           1.4870     2.0440     1.7630 ha         1 HBH       0.137000
     47 H101         1.7130     1.2250     5.5740 h1         1 HBH       0.058700
     48 H102         2.6590     0.9230     7.0380 h1         1 HBH       0.058700
     49 H111         1.4870    -1.4900     5.7730 hc         1 HBH       0.075700
     50 H112         1.5790    -1.0410     7.4820 hc         1 HBH       0.075700
     51 H121        -0.6160    -0.5190     7.3500 hc         1 HBH       0.065200
     52 H122        -0.1390     0.8640     6.3550 hc         1 HBH       0.065200
     53 H16         -1.7760    -1.7410     3.1880 h1         1 HBH       0.124700
     54 H271        -1.8910    -0.4680    -3.8220 h1         1 HBH       0.067200
     55 H272        -2.6110    -2.0040    -4.3220 h1         1 HBH       0.067200
     56 H301        -6.3870    -0.2470    -5.0690 hc         1 HBH       0.036200
     57 H302        -5.8250     0.7380    -6.4260 hc         1 HBH       0.036200
     58 H303        -5.7620     1.3820    -4.7800 hc         1 HBH       0.036200
     59 H311        -3.1010     1.6820    -4.7750 hc         1 HBH       0.036200
     60 H312        -2.2680     0.5090    -5.8050 hc         1 HBH       0.036200
     61 H313        -3.5570     1.5170    -6.4760 hc         1 HBH       0.036200
     62 H4           2.7100    -2.0270     1.3460 ha         1 HBH       0.137000
     63 H5           3.5560    -2.0120     3.6610 ha         1 HBH       0.147500
     64 H15         -1.6240     0.9220     4.5650 hn         1 HBH       0.327500
     65 H171        -4.0160    -0.9330     2.4080 hc         1 HBH       0.112700
     66 H172        -3.7820     0.5380     3.3610 hc         1 HBH       0.112700
     67 H191        -5.4870    -1.5560     5.7480 hn         1 HBH       0.478133
     68 H192        -5.8490    -1.8050     4.1740 hn         1 HBH       0.478133
     69 H22         -0.0510    -1.4320     1.5980 hn         1 HBH       0.332500
     70 H23         -0.1480    -1.8320    -1.1140 h1         1 HBH       0.037700
     71 H24          0.7360    -0.6870    -2.6940 ho         1 HBH       0.411000
     72 H251        -2.4040     0.1900    -1.3570 h1         1 HBH       0.072200
     73 H252        -2.4000    -1.1750    -0.2320 h1         1 HBH       0.072200
     74 H281        -4.8220    -1.1870    -3.4660 hc         1 HBH       0.046700
     75 H282        -4.0710     0.3770    -3.1240 hc         1 HBH       0.046700
     76 H29         -4.1290    -0.9430    -5.8610 hc         1 HBH       0.055700
     77 H36         -0.8190    -4.0390    -0.1180 ha         1 HBH       0.148000
     78 H37          1.2450    -5.3450    -0.4610 ha         1 HBH       0.141500
     79 H38          1.7310    -6.3220    -2.6710 ha         1 HBH       0.142000
     80 H39          0.1600    -5.9850    -4.5410 ha         1 HBH       0.141500
     81 H40         -1.9470    -4.8260    -4.1620 ha         1 HBH       0.148000
     82 H193        -5.7010    -0.2810     4.7520 hn         1 HBH       0.478133
@<TRIPOS>BOND
     1     1     2 1
     2     1    28 1
     3     1    29 1
     4     1    42 1
     5     2     3 1
     6     2    43 1
     7     2    44 1
     8     3     5 ar
     9     3    17 ar
    10     4     5 ar
    11     4    19 ar
    12     4    45 1
    13     5    46 1
    14     6     7 1
    15     6    20 1
    16     6    47 1
    17     6    48 1
    18     7     8 1
    19     7    49 1
    20     7    50 1
    21     8     9 1
    22     8    51 1
    23     8    52 1
    24     9    21 2
    25     9    22 1
    26    10    11 1
    27    10    22 1
    28    10    23 1
    29    10    53 1
    30    11    27 2
    31    11    28 1
    32    12    13 1
    33    12    31 1
    34    12    34 1
    35    13    32 1
    36    13    54 1
    37    13    55 1
    38    14    33 1
    39    14    56 1
    40    14    57 1
    41    14    58 1
    42    15    33 1
    43    15    59 1
    44    15    60 1
    45    15    61 1
    46    16    34 1
    47    16    37 ar
    48    16    41 ar
    49    17    18 ar
    50    17    62 1
    51    18    19 ar
    52    18    63 1
    53    19    20 1
    54    22    64 1
    55    23    24 1
    56    23    65 1
    57    23    66 1
    58    24    25 2
    59    24    26 1
    60    26    67 1
    61    26    68 1
    62    28    69 1
    63    29    30 1
    64    29    31 1
    65    29    70 1
    66    30    71 1
    67    31    72 1
    68    31    73 1
    69    32    33 1
    70    32    74 1
    71    32    75 1
    72    33    76 1
    73    34    35 2
    74    34    36 2
    75    37    38 ar
    76    37    77 1
    77    38    39 ar
    78    38    78 1
    79    39    40 ar
    80    39    79 1
    81    40    41 ar
    82    40    80 1
    83    41    81 1
    84    82    26 1
@<TRIPOS>SUBSTRUCTURE
     1 HBH         1 TEMP              0 ****  ****    0 ROOT
