@<TRIPOS>MOLECULE
HBI
   30    31     1     0     0
SMALL
bcc


@<TRIPOS>ATOM
      1 N1         -0.0090    0.1380   -0.0210 nc        1 HBI     -0.743300
      2 N2          1.9280   -0.0020   -1.3720 nh        1 HBI     -0.908800
      3 C2          1.3300   -0.0580   -0.1040 cd        1 HBI      0.728800
      4 N3          2.1360   -0.3620    0.9960 n         1 HBI     -0.512400
      5 C4          1.5780   -0.5620    2.2910 c         1 HBI      0.751700
      6 O4          2.3820   -0.8500    3.1910 o         1 HBI     -0.605500
      7 C4A         0.1330   -0.3930    2.3940 cd        1 HBI     -0.198600
      8 C8A        -0.6060   -0.0370    1.2250 cc        1 HBI      0.458600
      9 N8         -1.9640    0.1700    1.3240 nh        1 HBI     -0.749000
     10 C7         -2.6630   -0.0490    2.5670 c3        1 HBI      0.155500
     11 C6         -1.7600   -0.4550    3.7150 c2        1 HBI      0.278300
     12 N5         -0.4710   -0.6050    3.6310 nf        1 HBI     -0.460300
     13 C9         -2.4980   -0.6830    5.0190 c3        1 HBI      0.091800
     14 O9         -2.2880   -1.9860    5.5240 oh        1 HBI     -0.586800
     15 C10        -2.1000    0.3830    6.0640 c3        1 HBI      0.115100
     16 O10        -2.3170    1.6870    5.5440 oh        1 HBI     -0.597800
     17 C11        -2.9630    0.2560    7.3060 c3        1 HBI     -0.093100
     18 HN21        2.8890    0.2450   -1.4130 hn        1 HBI      0.434300
     19 HN22        1.3580    0.3390   -2.1140 hn        1 HBI      0.434300
     20 H3          3.1140   -0.5240    0.8890 hn        1 HBI      0.335500
     21 H8         -2.5060    0.3470    0.5110 hn        1 HBI      0.455800
     22 H71        -3.4460   -0.8500    2.4170 h1        1 HBI      0.054200
     23 H72        -3.1950    0.9080    2.8510 h1        1 HBI      0.054200
     24 H9         -3.6100   -0.6340    4.8340 h1        1 HBI      0.084700
     25 HO9        -1.3430   -2.0900    5.6960 ho        1 HBI      0.418000
     26 H10        -1.0140    0.2490    6.3280 h1        1 HBI      0.051700
     27 HO1        -1.6690    1.8170    4.8410 ho        1 HBI      0.405000
     28 H111       -2.9380   -0.8020    7.6610 hc        1 HBI      0.049700
     29 H112       -4.0170    0.5430    7.0770 hc        1 HBI      0.049700
     30 H113       -2.5780    0.9300    8.1070 hc        1 HBI      0.049700
@<TRIPOS>BOND
     1    1    3 2   
     2    1    8 1   
     3    2    3 1   
     4    2   18 1   
     5    2   19 1   
     6    3    4 1   
     7    4    5 1   
     8    4   20 1   
     9    5    6 2   
    10    5    7 1   
    11    7    8 2   
    12    7   12 1   
    13    8    9 1   
    14    9   10 1   
    15    9   21 1   
    16   10   11 1   
    17   10   22 1   
    18   10   23 1   
    19   11   12 2   
    20   11   13 1   
    21   13   14 1   
    22   13   15 1   
    23   13   24 1   
    24   14   25 1   
    25   15   16 1   
    26   15   17 1   
    27   15   26 1   
    28   16   27 1   
    29   17   28 1   
    30   17   29 1   
    31   17   30 1   
@<TRIPOS>SUBSTRUCTURE
     1 HBI         1 TEMP              0 ****  ****    0 ROOT
