@<TRIPOS>MOLECULE
HBJ
   62    64     1     0     0
SMALL
bcc


@<TRIPOS>ATOM
      1 C16          0.0000     0.0000     0.0000 c          1 HBJ       0.598700
      2 C15          1.4780     0.0000     0.0000 ca         1 HBJ      -0.149600
      3 C14          2.1790     0.0000     1.2070 ca         1 HBJ      -0.061500
      4 C13          3.5580    -0.0000     1.1990 ca         1 HBJ      -0.089000
      5 C12          4.2480    -0.0010    -0.0010 ca         1 HBJ      -0.096300
      6 C11          5.7540    -0.0010    -0.0020 c3         1 HBJ       0.114300
      7 C02          2.8790    -7.1770    -2.7880 ca         1 HBJ      -0.098300
      8 C03          3.3240    -6.5120    -3.9150 ca         1 HBJ      -0.083000
      9 C04          4.2120    -5.4620    -3.7930 ca         1 HBJ      -0.110500
     10 C05          4.6600    -5.0740    -2.5370 ca         1 HBJ      -0.102400
     11 C07          5.4910    -3.1930    -1.3410 c          1 HBJ       0.539100
     12 C09          6.5390    -2.1310    -1.1370 c3         1 HBJ      -0.064000
     13 C20          2.1790    -0.0070    -1.2080 ca         1 HBJ      -0.061500
     14 C21          3.5590    -0.0010    -1.2010 ca         1 HBJ      -0.089000
     15 C22          6.4180    -1.9580     1.2910 c          1 HBJ       0.640700
     16 C24          7.0980    -3.2640     1.3910 ca         1 HBJ      -0.199600
     17 C25          7.2330    -4.0710     0.2580 ca         1 HBJ      -0.059500
     18 C26          7.8680    -5.2880     0.3540 ca         1 HBJ      -0.200000
     19 C27          8.3770    -5.7150     1.5780 ca         1 HBJ       0.096600
     20 C29          9.1590    -7.7900     0.4840 c3         1 HBJ       0.209100
     21 C30          9.5520    -7.3950     2.9600 c3         1 HBJ       0.209100
     22 C31          8.2430    -4.9130     2.7080 ca         1 HBJ      -0.200000
     23 C32          7.6130    -3.6920     2.6170 ca         1 HBJ      -0.059500
     24 C33          4.2120    -5.7450    -1.4060 ca         1 HBJ      -0.110500
     25 C34          3.3230    -6.7950    -1.5340 ca         1 HBJ      -0.083000
     26 N06          5.5600    -4.0120    -2.4100 ns         1 HBJ      -0.041100
     27 N10          6.2420    -1.3800     0.0860 n          1 HBJ      -0.122800
     28 N18         -0.6740     0.0070     1.1670 ns         1 HBJ      -0.062400
     29 N28          9.0180    -6.9450     1.6730 nh         1 HBJ      -0.385000
     30 O08          4.5850    -3.3120    -0.5450 o          1 HBJ      -0.598100
     31 O17         -0.6080    -0.0010    -1.0520 o          1 HBJ      -0.626100
     32 O19         -2.0900     0.0070     1.1670 oh         1 HBJ      -0.439100
     33 O23          6.0160    -1.4030     2.2950 o          1 HBJ      -0.655100
     34 H1           1.6420     0.0000     2.1470 ha         1 HBJ       0.111500
     35 H2           4.1040    -0.0000     2.1350 ha         1 HBJ       0.117000
     36 H3           6.1150     0.4520    -0.9170 h1         1 HBJ       0.031200
     37 H4           6.1160     0.5640     0.8490 h1         1 HBJ       0.031200
     38 H5           2.4150    -9.1850    -3.3270 hc         1 HBJ       0.007367
     39 H6           1.4960    -8.5630    -1.9500 hc         1 HBJ       0.007367
     40 H7           1.1000    -8.0310    -3.5900 hc         1 HBJ       0.007367
     41 H8           2.9740    -6.8140    -4.8950 ha         1 HBJ       0.107500
     42 H9           4.5590    -4.9400    -4.6760 ha         1 HBJ       0.122000
     43 H10          6.5390    -1.4550    -1.9840 h1         1 HBJ       0.052200
     44 H11          7.5130    -2.5970    -1.0470 h1         1 HBJ       0.052200
     45 H12          1.6400    -0.0080    -2.1480 ha         1 HBJ       0.111500
     46 H13          4.1040    -0.0040    -2.1370 ha         1 HBJ       0.117000
     47 H14          6.8370    -3.7400    -0.6940 ha         1 HBJ       0.139500
     48 H15          7.9730    -5.9140    -0.5240 ha         1 HBJ       0.116000
     49 H16          8.1770    -8.0430     0.1020 h1         1 HBJ       0.006533
     50 H17          9.6880    -8.6980     0.7470 h1         1 HBJ       0.006533
     51 H18          9.7150    -7.2550    -0.2760 h1         1 HBJ       0.006533
     52 H19          8.7460    -7.4660     3.6800 h1         1 HBJ       0.006533
     53 H20         10.0140    -8.3680     2.8380 h1         1 HBJ       0.006533
     54 H21         10.2910    -6.6860     3.3120 h1         1 HBJ       0.006533
     55 H22          8.6410    -5.2460     3.6590 ha         1 HBJ       0.116000
     56 H23          7.5090    -3.0690     3.4970 ha         1 HBJ       0.139500
     57 H24          4.5590    -5.4460    -0.4250 ha         1 HBJ       0.122000
     58 H25          2.9730    -7.3190    -0.6530 ha         1 HBJ       0.107500
     59 H26          6.2400    -3.8450    -3.1250 hn         1 HBJ       0.165500
     60 H27         -0.1740     0.0190     2.0340 hn         1 HBJ       0.163500
     61 H28         -2.4040     0.0320     2.0560 ho         1 HBJ       0.390000
     62 C01          1.9040    -8.3190    -2.9230 c3         1 HBJ       0.065200
@<TRIPOS>BOND
     1     1     2 1   
     2     1    28 1   
     3     1    31 2   
     4     2     3 ar  
     5     2    13 ar  
     6     3     4 ar  
     7     3    34 1   
     8     4     5 ar  
     9     4    35 1   
    10     5     6 1   
    11     5    14 ar  
    12     6    27 1   
    13     6    36 1   
    14     6    37 1   
    15     7     8 ar  
    16     7    25 ar  
    17     7    62 1   
    18     8     9 ar  
    19     8    41 1   
    20     9    10 ar  
    21     9    42 1   
    22    10    24 ar  
    23    10    26 1   
    24    11    12 1   
    25    11    26 1   
    26    11    30 2   
    27    12    27 1   
    28    12    43 1   
    29    12    44 1   
    30    13    14 ar  
    31    13    45 1   
    32    14    46 1   
    33    15    16 1   
    34    15    27 1   
    35    15    33 2   
    36    16    17 ar  
    37    16    23 ar  
    38    17    18 ar  
    39    17    47 1   
    40    18    19 ar  
    41    18    48 1   
    42    19    22 ar  
    43    19    29 1   
    44    20    29 1   
    45    20    49 1   
    46    20    50 1   
    47    20    51 1   
    48    21    29 1   
    49    21    52 1   
    50    21    53 1   
    51    21    54 1   
    52    22    23 ar  
    53    22    55 1   
    54    23    56 1   
    55    24    25 ar  
    56    24    57 1   
    57    25    58 1   
    58    26    59 1   
    59    28    32 1   
    60    28    60 1   
    61    32    61 1   
    62    38    62 1   
    63    39    62 1   
    64    40    62 1   
@<TRIPOS>SUBSTRUCTURE
     1 HBJ         1 TEMP              0 ****  ****    0 ROOT
