@<TRIPOS>MOLECULE
molecule
   24    25     1     0     0
SMALL
bcc


@<TRIPOS>ATOM
      1 O1A          0.0000     0.0000     0.0000 oh         1 HBK      -0.540800
      2 C1B          3.2220     1.4680    -0.5250 ca         1 HBK       0.142100
      3 O1B          1.9050     1.1660    -0.6780 os         1 HBK      -0.341900
      4 C2B          1.4300     0.0000     0.0000 c3         1 HBK       0.303900
      5 C3B          1.9310     0.0000     1.4210 c          1 HBK       0.668500
      6 N3B          3.1250     0.5620     1.7100 n          1 HBK      -0.249500
      7 O3B          1.2660    -0.5020     2.3020 o          1 HBK      -0.575500
      8 C4B          3.8590     1.1670     0.6770 ca         1 HBK      -0.030400
      9 C5B          5.2010     1.4670     0.8470 ca         1 HBK      -0.085000
     10 C6B          5.9080     2.0660    -0.1810 ca         1 HBK      -0.221000
     11 C7B          5.2750     2.3660    -1.3780 ca         1 HBK       0.151100
     12 O7B          5.9740     2.9540    -2.3850 os         1 HBK      -0.323900
     13 C8B          3.9330     2.0610    -1.5540 ca         1 HBK      -0.155000
     14 C9B          7.3540     3.2350    -2.1400 c3         1 HBK       0.128700
     15 OHB          3.6300     0.5380     3.0330 oh         1 HBK      -0.351100
     16 HO1A        -0.3140    -0.5070    -0.7300 ho         1 HBK       0.421000
     17 H2B          1.7950    -0.8840    -0.5090 h2         1 HBK       0.055700
     18 H5B          5.6960     1.2330     1.7820 ha         1 HBK       0.151000
     19 H6B          6.9590     2.2960    -0.0510 ha         1 HBK       0.144000
     20 H8B          3.4400     2.2960    -2.4890 ha         1 HBK       0.166000
     21 H9B          7.4420     3.9060    -1.2940 h1         1 HBK       0.044033
     22 H9BA         7.8770     2.3110    -1.9250 h1         1 HBK       0.044033
     23 H9BB         7.7890     3.7000    -3.0170 h1         1 HBK       0.044033
     24 HOHB         3.7890    -0.3540     3.2930 ho         1 HBK       0.409000
@<TRIPOS>BOND
     1     1     4 1
     2     2     3 1
     3     2     8 ar
     4     2    13 ar
     5     3     4 1
     6     4     5 1
     7     5     6 1
     8     5     7 2
     9     6     8 1
    10     6    15 1
    11     8     9 ar
    12     9    10 ar
    13    10    11 ar
    14    11    12 1
    15    11    13 ar
    16    12    14 1
    17     1    16 1
    18     4    17 1
    19     9    18 1
    20    10    19 1
    21    13    20 1
    22    14    21 1
    23    14    22 1
    24    14    23 1
    25    15    24 1
@<TRIPOS>SUBSTRUCTURE
     1 HBK         1 TEMP              0 ****  ****    0 ROOT
