@<TRIPOS>MOLECULE
HBL
   30    31     1     0     0
SMALL
bcc


@<TRIPOS>ATOM
      1 N1          0.1270   -0.5350   -0.0360 nc        1 HBL     -0.742300
      2 C2          1.4280   -0.1640   -0.0870 cd        1 HBL      0.722800
      3 N2          2.1510   -0.4400   -1.2600 nh        1 HBL     -0.905800
      4 N3          2.1050    0.4320    0.9810 n         1 HBL     -0.511400
      5 C4          1.4700    0.6340    2.2400 c         1 HBL      0.751700
      6 O4          2.1710    1.1460    3.1270 o         1 HBL     -0.610500
      7 C4A         0.0760    0.2190    2.3220 cd        1 HBL     -0.192600
      8 C8A        -0.5430   -0.3620    1.1740 cc        1 HBL      0.455600
      9 N5         -0.5980    0.4050    3.5280 nf        1 HBL     -0.482300
     10 N8         -1.8580   -0.7550    1.2470 nh        1 HBL     -0.752000
     11 C6         -1.8390    0.0230    3.6020 c2        1 HBL      0.332300
     12 C7         -2.6140   -0.6260    2.4700 c3        1 HBL      0.163500
     13 C8         -2.6380    0.2430    4.8710 c3        1 HBL      0.082800
     14 O9         -3.8040   -0.5660    4.7660 oh        1 HBL     -0.606800
     15 C9         -1.8250   -0.0950    6.1430 c3        1 HBL      0.130100
     16 C10        -2.7210   -0.4700    7.3120 c3        1 HBL     -0.102100
     17 O10        -1.1000    1.0520    6.5560 oh        1 HBL     -0.606800
     18 HN21        2.9130    0.1620   -1.4720 hn        1 HBL      0.430800
     19 HN22        1.6140   -0.7460   -2.0410 hn        1 HBL      0.430800
     20 HN3         3.0720    0.6620    0.9140 hn        1 HBL      0.334500
     21 HN8        -2.3040   -1.1780    0.4680 hn        1 HBL      0.455800
     22 HC71       -2.9520   -1.6510    2.8070 h1        1 HBL      0.061200
     23 HC72       -3.5380   -0.0110    2.2650 h1        1 HBL      0.061200
     24 HC8        -2.9370    1.3310    4.9160 h1        1 HBL      0.064700
     25 HO9        -4.3860   -0.3000    5.4880 ho        1 HBL      0.413000
     26 HC9        -1.1200   -0.9440    5.9240 h1        1 HBL      0.053700
     27 H101       -3.2410   -1.4330    7.0950 hc        1 HBL      0.046700
     28 H102       -2.0990   -0.5870    8.2320 hc        1 HBL      0.046700
     29 H103       -3.4760    0.3290    7.5000 hc        1 HBL      0.046700
     30 H10O       -0.3860    1.1910    5.9200 ho        1 HBL      0.430000
@<TRIPOS>BOND
     1    1    2 2   
     2    1    8 1   
     3    2    3 1   
     4    2    4 1   
     5    3   18 1   
     6    3   19 1   
     7    4    5 1   
     8    4   20 1   
     9    5    6 2   
    10    5    7 1   
    11    7    8 2   
    12    7    9 1   
    13    8   10 1   
    14    9   11 2   
    15   10   12 1   
    16   10   21 1   
    17   11   12 1   
    18   11   13 1   
    19   12   22 1   
    20   12   23 1   
    21   13   14 1   
    22   13   15 1   
    23   13   24 1   
    24   14   25 1   
    25   15   16 1   
    26   15   17 1   
    27   15   26 1   
    28   16   27 1   
    29   16   28 1   
    30   16   29 1   
    31   17   30 1   
@<TRIPOS>SUBSTRUCTURE
     1 HBL         1 TEMP              0 ****  ****    0 ROOT
