@<TRIPOS>MOLECULE
HBM
   54    57     1     0     0
SMALL
bcc


@<TRIPOS>ATOM
      1 C2           0.0000     0.0000     0.0000 ca         1 HBM      -0.031000
      2 C4          -0.0740    -0.0000     2.4340 ca         1 HBM       0.226100
      3 C6           2.0260     0.0000     1.2460 ca         1 HBM      -0.182200
      4 C10          4.6530     0.0020     3.6950 ca         1 HBM      -0.120900
      5 C11          5.2280     1.2330     4.0230 ca         1 HBM      -0.055000
      6 C1           1.3980     0.0000     0.0000 ca         1 HBM      -0.178600
      7 C3          -0.7250    -0.0000     1.1940 ca         1 HBM      -0.197000
      8 C5           1.3320     0.0000     2.4530 ca         1 HBM       0.001400
      9 N7           3.3470     0.0010     1.6140 na         1 HBM       0.288700
     10 C8           3.4010     0.0010     2.9790 cc         1 HBM       0.257400
     11 N9           2.2020     0.0010     3.5190 nd         1 HBM      -0.472100
     12 C12          6.4370     1.2800     4.7150 ca         1 HBM      -0.107000
     13 C13          7.0780     0.0950     5.0810 ca         1 HBM      -0.022600
     14 C14          6.5070    -1.1350     4.7550 ca         1 HBM      -0.100000
     15 C15          5.2970    -1.1820     4.0640 ca         1 HBM      -0.004600
     16 Cl16         8.5740     0.1550     5.9290 cl         1 HBM      -0.005400
     17 Cl17         4.6330    -2.7350     3.6890 cl         1 HBM       0.006600
     18 C18          2.1500     0.0010    -1.2410 c          1 HBM       0.626700
     19 N19          1.5570    -0.6230    -2.3470 ns         1 HBM      -0.208900
     20 C20          2.1890    -0.7260    -3.6430 c3         1 HBM       0.054000
     21 C21          3.0260    -1.9940    -3.7880 c3         1 HBM       0.008900
     22 C22          4.1230    -2.0960    -2.7580 ca         1 HBM      -0.084300
     23 C23          5.3710    -1.5590    -3.0380 ca         1 HBM      -0.077000
     24 C24          6.3850    -1.6530    -2.0850 ca         1 HBM      -0.102500
     25 C25          6.1400    -2.2830    -0.8650 ca         1 HBM       0.035600
     26 C26          4.8800    -2.8180    -0.5970 ca         1 HBM      -0.102500
     27 C27          3.8650    -2.7240    -1.5490 ca         1 HBM      -0.077000
     28 N28          7.1780    -2.3790     0.1100 nu         1 HBM      -0.398500
     29 S29          7.8690    -3.9270     0.4140 s6         1 HBM       0.874900
     30 C30          8.9700    -4.0580    -0.9770 c3         1 HBM      -0.013300
     31 O31          8.6980    -3.8340     1.6010 o          1 HBM      -0.553300
     32 O32          6.8710    -4.9720     0.2920 o          1 HBM      -0.553300
     33 O33          3.2810     0.5190    -1.2990 o          1 HBM      -0.661100
     34 O34         -0.8040     0.0000     3.5890 oh         1 HBM      -0.486100
     35 H2          -0.5310    -0.0000    -0.9440 ha         1 HBM       0.100000
     36 H11          4.7310     2.1530     3.7390 ha         1 HBM       0.114000
     37 H3          -1.8080    -0.0000     1.1610 ha         1 HBM       0.119000
     38 HN7          4.1300     0.0800     0.9950 hn         1 HBM       0.156700
     39 H12          6.8800     2.2360     4.9680 ha         1 HBM       0.118000
     40 H14          7.0040    -2.0550     5.0390 ha         1 HBM       0.135000
     41 HN19         0.6450    -1.0200    -2.2330 hn         1 HBM       0.175500
     42 H201         1.4210    -0.7240    -4.4080 h1         1 HBM       0.026700
     43 H202         2.8300     0.1350    -3.7890 h1         1 HBM       0.026700
     44 H211         2.3750    -2.8540    -3.6900 hc         1 HBM       0.020700
     45 H212         3.4720    -2.0050    -4.7750 hc         1 HBM       0.020700
     46 H23          5.5550    -1.0710    -3.9870 ha         1 HBM       0.108500
     47 H24          7.3640    -1.2370    -2.2930 ha         1 HBM       0.113500
     48 H26          4.6890    -3.3070     0.3510 ha         1 HBM       0.113500
     49 H27          2.8850    -3.1380    -1.3470 ha         1 HBM       0.108500
     50 HN28         7.6440    -1.5520     0.4290 hn         1 HBM       0.341800
     51 H301         9.4280    -3.0940    -1.1670 h1         1 HBM       0.067700
     52 H302         8.4130    -4.3710    -1.8510 h1         1 HBM       0.067700
     53 H303         9.7410    -4.7870    -0.7600 h1         1 HBM       0.067700
     54 HO34        -1.0940     0.8770     3.7780 ho         1 HBM       0.409000
@<TRIPOS>BOND
     1     1     6 ar  
     2     1     7 ar  
     3     1    35 1   
     4     2     7 ar  
     5     2     8 ar  
     6     2    34 1   
     7     3     6 ar  
     8     3     8 ar  
     9     3     9 1   
    10     4     5 ar  
    11     4    10 1   
    12     4    15 ar  
    13     5    12 ar  
    14     5    36 1   
    15     6    18 1   
    16     7    37 1   
    17     8    11 1   
    18     9    10 1   
    19     9    38 1   
    20    10    11 2   
    21    12    13 ar  
    22    12    39 1   
    23    13    14 ar  
    24    13    16 1   
    25    14    15 ar  
    26    14    40 1   
    27    15    17 1   
    28    18    19 1   
    29    18    33 2   
    30    19    20 1   
    31    19    41 1   
    32    20    21 1   
    33    20    42 1   
    34    20    43 1   
    35    21    22 1   
    36    21    44 1   
    37    21    45 1   
    38    22    23 ar  
    39    22    27 ar  
    40    23    24 ar  
    41    23    46 1   
    42    24    25 ar  
    43    24    47 1   
    44    25    26 ar  
    45    25    28 1   
    46    26    27 ar  
    47    26    48 1   
    48    27    49 1   
    49    28    29 1   
    50    28    50 1   
    51    29    30 1   
    52    29    31 2   
    53    29    32 2   
    54    30    51 1   
    55    30    52 1   
    56    30    53 1   
    57    34    54 1   
@<TRIPOS>SUBSTRUCTURE
     1 HBM         1 TEMP              0 ****  ****    0 ROOT
