@<TRIPOS>MOLECULE
molecule
   24    25     1     0     0
SMALL
bcc


@<TRIPOS>ATOM
      1 O1A          0.0000     0.0000     0.0000 oh         1 HBO      -0.595800
      2 C3B          1.9260     1.2190    -0.7320 c          1 HBO       0.678500
      3 N3B          1.9700     2.3940    -0.0550 n          1 HBO      -0.246500
      4 C4B          1.5410     2.3640     1.2850 ca         1 HBO      -0.016400
      5 C1B          1.5040     1.1430     1.9550 ca         1 HBO       0.122100
      6 O1B          1.8930     0.0000     1.3430 os         1 HBO      -0.300900
      7 C2B          1.4270     0.0000     0.0000 c3         1 HBO       0.275900
      8 C5B          1.1550     3.5280     1.9240 ca         1 HBO      -0.083000
      9 C6B          0.7230     3.4830     3.2370 ca         1 HBO      -0.220000
     10 C8B          1.0700     1.1050     3.2720 ca         1 HBO      -0.148000
     11 O3B          2.2790     1.1510    -1.8910 o          1 HBO      -0.594500
     12 OHB          2.4240     3.5890    -0.6650 oh         1 HBO      -0.352100
     13 C7B          0.6760     2.2720     3.9080 ca         1 HBO       0.126100
     14 O7B          0.2480     2.2280     5.1980 os         1 HBO      -0.293900
     15 C9B         -0.0780     3.5680     5.5710 c3         1 HBO       0.104700
     16 H1A         -0.3140    -0.7740    -0.4370 ho         1 HBO       0.426000
     17 H2B          1.7890    -0.8890    -0.5020 h2         1 HBO       0.104700
     18 H5B          1.1920     4.4740     1.3970 ha         1 HBO       0.155000
     19 H6B          0.4140     4.3930     3.7370 ha         1 HBO       0.150000
     20 H8B          1.0320     0.1610     3.8020 ha         1 HBO       0.163000
     21 HHB          3.3650     3.5750    -0.7210 ho         1 HBO       0.408000
     22 H9B3        -0.4250     3.5830     6.5970 h1         1 HBO       0.046033
     23 H9B2        -0.8580     3.9450     4.9200 h1         1 HBO       0.046033
     24 H9B1         0.8030     4.1930     5.4780 h1         1 HBO       0.046033
@<TRIPOS>BOND
     1     1     7 1
     2     1    16 1
     3     2     3 1
     4     2     7 1
     5     2    11 2
     6     3     4 1
     7     3    12 1
     8     4     5 ar
     9     4     8 ar
    10     5     6 1
    11     5    10 ar
    12     6     7 1
    13     7    17 1
    14     8     9 ar
    15     8    18 1
    16     9    13 ar
    17     9    19 1
    18    10    13 ar
    19    10    20 1
    20    12    21 1
    21    13    14 1
    22    14    15 1
    23    15    22 1
    24    15    23 1
    25    15    24 1
@<TRIPOS>SUBSTRUCTURE
     1 HBO         1 TEMP              0 ****  ****    0 ROOT
