@<TRIPOS>MOLECULE
HBP
   51    52     1     0     0
SMALL
bcc


@<TRIPOS>ATOM
      1 C1          0.1680   -0.2790   -0.0680 c3        1 HBP     -0.010700
      2 C5         -1.5780   -1.7280   -1.0770 c3        1 HBP     -0.081400
      3 O10         3.3300    0.8370   -3.3850 oh        1 HBP     -0.312000
      4 N9          3.3070    0.9440   -2.0930 n2        1 HBP     -0.353700
      5 C8A         2.6750   -0.0070   -1.4520 ce        1 HBP      0.311800
      6 C7          2.6320    0.0140    0.0250 ca        1 HBP      0.002300
      7 C6          3.8210    0.1760    0.7630 ca        1 HBP     -0.126000
      8 C4          2.5640   -0.0320    2.8060 ca        1 HBP     -0.133500
      9 C3          1.4030   -0.1840    2.0460 ca        1 HBP     -0.033800
     10 N2          1.4280   -0.1490    0.6750 na        1 HBP      0.033900
     11 C2         -0.2540   -1.7240   -0.3380 c3        1 HBP     -0.098900
     12 C5A         3.7910    0.1560    2.1580 ca        1 HBP     -0.004500
     13 C8         -2.0330   -3.1440   -1.3660 c3        1 HBP     -0.077400
     14 C11        -3.3500   -3.1430   -2.1150 c3        1 HBP     -0.081400
     15 C14        -3.8040   -4.5590   -2.4160 c3        1 HBP     -0.098900
     16 C17        -5.1180   -4.5100   -3.1940 c3        1 HBP     -0.010700
     17 N20        -5.6160   -5.8260   -3.6170 na        1 HBP      0.033900
     18 C21        -5.0560   -6.4130   -4.7240 ca        1 HBP     -0.033800
     19 C22        -5.5020   -7.6420   -5.2120 ca        1 HBP     -0.133500
     20 C23        -6.5540   -8.3000   -4.5620 ca        1 HBP     -0.004500
     21 C24        -7.1230   -7.7070   -3.4350 ca        1 HBP     -0.126000
     22 C25        -6.6400   -6.4700   -2.9630 ca        1 HBP      0.002300
     23 C26        -7.3030   -5.8900   -1.7740 ce        1 HBP      0.311800
     24 N27        -6.6630   -5.7840   -0.6400 n2        1 HBP     -0.353700
     25 O28        -7.3540   -5.3160    0.3570 oh        1 HBP     -0.312000
     26 H1A        -0.6350    0.2400    0.5330 h1        1 HBP      0.100200
     27 H1B         0.2770    0.2750   -1.0460 h1        1 HBP      0.100200
     28 H6         -1.4750   -1.1620   -2.0410 hc        1 HBP      0.056450
     29 H7         -2.3560   -1.2020   -0.4620 hc        1 HBP      0.056450
     30 H10A        3.8400    1.6190   -3.7060 ho        1 HBP      0.477000
     31 H8          2.1840   -0.8710   -1.9450 h4        1 HBP      0.053300
     32 H6A         4.7720    0.3190    0.2180 ha        1 HBP      0.206000
     33 H4A         2.4960   -0.0580    3.9080 ha        1 HBP      0.204000
     34 H3A         0.4120   -0.3270    2.5250 h4        1 HBP      0.205000
     35 H4         -0.3570   -2.2850    0.6280 hc        1 HBP      0.067450
     36 H3          0.5250   -2.2470   -0.9530 hc        1 HBP      0.067450
     37 H5          4.7210    0.2880    2.7410 ha        1 HBP      0.199500
     38 H10        -1.2530   -3.6740   -1.9750 hc        1 HBP      0.053700
     39 H9         -2.1460   -3.7100   -0.4040 hc        1 HBP      0.053700
     40 H12        -3.2360   -2.5700   -3.0740 hc        1 HBP      0.056450
     41 H13        -4.1300   -2.6180   -1.5030 hc        1 HBP      0.056450
     42 H15        -3.9410   -5.1260   -1.4580 hc        1 HBP      0.067450
     43 H16        -3.0180   -5.0890   -3.0160 hc        1 HBP      0.067450
     44 H18        -5.9130   -4.0090   -2.5700 h1        1 HBP      0.100200
     45 H19        -4.9780   -3.8920   -4.1310 h1        1 HBP      0.100200
     46 H21        -4.2310   -5.8590   -5.2180 h4        1 HBP      0.205000
     47 H22        -5.0210   -8.0760   -6.1070 ha        1 HBP      0.204000
     48 H23        -6.9260   -9.2720   -4.9350 ha        1 HBP      0.199500
     49 H24        -7.9530   -8.1940   -2.8910 ha        1 HBP      0.206000
     50 H26        -8.3730   -5.6290   -1.9250 h4        1 HBP      0.053300
     51 H28        -6.7700   -5.4000    1.1450 ho        1 HBP      0.477000
@<TRIPOS>BOND
     1    1   10 1   
     2    1   11 1   
     3    1   26 1   
     4    1   27 1   
     5    2   11 1   
     6    2   13 1   
     7    2   28 1   
     8    2   29 1   
     9    3    4 1   
    10    3   30 1   
    11    4    5 2   
    12    5    6 1   
    13    5   31 1   
    14    6    7 ar  
    15    6   10 2   
    16    7   12 ar  
    17    7   32 1   
    18    8    9 ar  
    19    8   12 ar  
    20    8   33 1   
    21    9   10 1   
    22    9   34 1   
    23   11   35 1   
    24   11   36 1   
    25   12   37 1   
    26   13   14 1   
    27   13   38 1   
    28   13   39 1   
    29   14   15 1   
    30   14   40 1   
    31   14   41 1   
    32   15   16 1   
    33   15   42 1   
    34   15   43 1   
    35   16   17 1   
    36   16   44 1   
    37   16   45 1   
    38   17   18 1   
    39   17   22 2   
    40   18   19 ar  
    41   18   46 1   
    42   19   20 ar  
    43   19   47 1   
    44   20   21 ar  
    45   20   48 1   
    46   21   22 ar  
    47   21   49 1   
    48   22   23 1   
    49   23   24 2   
    50   23   50 1   
    51   24   25 1   
    52   25   51 1   
@<TRIPOS>SUBSTRUCTURE
     1 HBP         1 TEMP              0 ****  ****    0 ROOT
