@<TRIPOS>MOLECULE
molecule
   51    52     1     0     0
SMALL
bcc


@<TRIPOS>ATOM
      1 C1           0.0000     0.0000     0.0000 c3         1 HBP      -0.017700
      2 C5          -1.7230    -1.4340    -1.1050 c3         1 HBP      -0.078900
      3 O10          3.3850     0.0210    -3.5820 oh         1 HBP      -0.340500
      4 N9           3.4430     0.0130    -2.1670 n2         1 HBP      -0.349700
      5 C8A          2.3500     0.0080    -1.4760 ce         1 HBP       0.357800
      6 C7           2.4100     0.0000     0.0000 ca         1 HBP      -0.028700
      7 C6           3.6480     0.0000     0.6420 ca         1 HBP      -0.102000
      8 C4           2.4880    -0.0140     2.7220 ca         1 HBP      -0.126500
      9 C3           1.2950    -0.0130     2.0210 ca         1 HBP      -0.040300
     10 N2           1.2850    -0.0010     0.7050 na         1 HBP       0.073900
     11 C2          -0.3810    -1.4350    -0.3680 c3         1 HBP      -0.106400
     12 C5A          3.6870    -0.0070     2.0260 ca         1 HBP      -0.016000
     13 C8          -2.1020    -2.8700    -1.4730 c3         1 HBP      -0.077400
     14 C11         -3.4440    -2.8690    -2.2090 c3         1 HBP      -0.078900
     15 C14         -3.8250    -4.3040    -2.5770 c3         1 HBP      -0.106400
     16 C17         -5.1660    -4.3030    -3.3130 c3         1 HBP      -0.017700
     17 N20         -5.5300    -5.6770    -3.6660 na         1 HBP       0.073900
     18 C21         -5.2260    -6.1360    -4.8630 ca         1 HBP      -0.040300
     19 C22         -5.5540    -7.4280    -5.2340 ca         1 HBP      -0.126500
     20 C23         -6.2110    -8.2490    -4.3300 ca         1 HBP      -0.016000
     21 C24         -6.5190    -7.7440    -3.0790 ca         1 HBP      -0.102000
     22 C25         -6.1540    -6.4330    -2.7690 ca         1 HBP      -0.028700
     23 C26         -6.4750    -5.8780    -1.4390 ce         1 HBP       0.357800
     24 N27         -7.0910    -6.6050    -0.5660 n2         1 HBP      -0.349700
     25 O28         -7.3980    -6.0730     0.7100 oh         1 HBP      -0.340500
     26 H1A         -0.7630     0.4230     0.6420 h1         1 HBP       0.101700
     27 H1B          0.0830     0.5940    -0.9020 h1         1 HBP       0.101700
     28 H6          -1.6390    -0.8400    -2.0070 hc         1 HBP       0.057950
     29 H7          -2.4860    -1.0120    -0.4630 hc         1 HBP       0.057950
     30 H10A         4.2610     0.0230    -3.9320 ho         1 HBP       0.465000
     31 H8           1.3910     0.0090    -1.9790 h4         1 HBP       0.027800
     32 H6A          4.5660     0.0050     0.0660 ha         1 HBP       0.212000
     33 H4A          2.4850    -0.0210     3.8060 ha         1 HBP       0.201000
     34 H3A          0.3570    -0.0180     2.5630 h4         1 HBP       0.206000
     35 H4           0.3820    -1.8580    -1.0100 hc         1 HBP       0.066200
     36 H3          -0.4650    -2.0290     0.5330 hc         1 HBP       0.066200
     37 H5           4.6340    -0.0070     2.5530 ha         1 HBP       0.197000
     38 H10         -2.1860    -3.4640    -0.5710 hc         1 HBP       0.054700
     39 H9          -1.3390    -3.2920    -2.1140 hc         1 HBP       0.054700
     40 H12         -3.3610    -2.2750    -3.1100 hc         1 HBP       0.057950
     41 H13         -4.2070    -2.4460    -1.5670 hc         1 HBP       0.057950
     42 H15         -3.0610    -4.7270    -3.2190 hc         1 HBP       0.066200
     43 H16         -3.9090    -4.8980    -1.6750 hc         1 HBP       0.066200
     44 H18         -5.9290    -3.8800    -2.6710 h1         1 HBP       0.101700
     45 H19         -5.0820    -3.7080    -4.2140 h1         1 HBP       0.101700
     46 H21         -4.7130    -5.4920    -5.5670 h4         1 HBP       0.206000
     47 H22         -5.2990    -7.7940    -6.2210 ha         1 HBP       0.201000
     48 H23         -6.4790    -9.2640    -4.5990 ha         1 HBP       0.197000
     49 H24         -7.0300    -8.3590    -2.3480 ha         1 HBP       0.212000
     50 H26         -6.1920    -4.8610    -1.1940 h4         1 HBP       0.027800
     51 H28         -7.8450    -6.7250     1.2230 ho         1 HBP       0.465000
@<TRIPOS>BOND
     1     1    10 1
     2     1    11 1
     3     1    26 1
     4     1    27 1
     5     2    11 1
     6     2    13 1
     7     2    28 1
     8     2    29 1
     9     3     4 1
    10     3    30 1
    11     4     5 2
    12     5     6 1
    13     5    31 1
    14     6     7 ar
    15     6    10 2
    16     7    12 ar
    17     7    32 1
    18     8     9 ar
    19     8    12 ar
    20     8    33 1
    21     9    10 1
    22     9    34 1
    23    11    35 1
    24    11    36 1
    25    12    37 1
    26    13    14 1
    27    13    38 1
    28    13    39 1
    29    14    15 1
    30    14    40 1
    31    14    41 1
    32    15    16 1
    33    15    42 1
    34    15    43 1
    35    16    17 1
    36    16    44 1
    37    16    45 1
    38    17    18 1
    39    17    22 2
    40    18    19 ar
    41    18    46 1
    42    19    20 ar
    43    19    47 1
    44    20    21 ar
    45    20    48 1
    46    21    22 ar
    47    21    49 1
    48    22    23 1
    49    23    24 2
    50    23    50 1
    51    24    25 1
    52    25    51 1
@<TRIPOS>SUBSTRUCTURE
     1 HBP         1 TEMP              0 ****  ****    0 ROOT
