@<TRIPOS>MOLECULE
HBQ
   37    38     1     0     0
SMALL
bcc


@<TRIPOS>ATOM
      1 C1           0.0000     0.0000     0.0000 c          1 HBQ       0.611500
      2 C2           1.5200     0.0000     0.0000 c3         1 HBQ      -0.063300
      3 C3           1.4540    -0.7050     2.3800 ca         1 HBQ      -0.062400
      4 C4           0.0900    -0.9900     2.2260 ca         1 HBQ      -0.119400
      5 C5          -0.6320    -1.6480     3.2320 ca         1 HBQ      -0.102000
      6 C6           0.0060    -2.0530     4.3970 ca         1 HBQ      -0.118000
      7 C7           1.3630    -1.8010     4.5590 ca         1 HBQ       0.105900
      8 C8           2.0810    -1.1350     3.5610 ca         1 HBQ      -0.129000
      9 C9           2.0140    -1.1940    -0.8210 c3         1 HBQ      -0.036400
     10 C10          1.5480    -1.0870    -2.2510 c3         1 HBQ      -0.001100
     11 C12          5.2870     1.3330     0.2780 c3         1 HBQ       0.200100
     12 C13          5.8940    -0.0590     0.3450 c3         1 HBQ      -0.023100
     13 C14          5.6290     2.0400    -1.0250 c3         1 HBQ      -0.023100
     14 F1           1.9910    -2.2060     5.6720 f          1 HBQ      -0.119900
     15 N1           2.1450     0.0000     1.3380 n          1 HBQ      -0.012000
     16 N2          -0.6050    -0.5820     1.0830 ns         1 HBQ      -0.022100
     17 O1          -0.6350     0.3670    -0.9920 o          1 HBQ      -0.644500
     18 O2           3.8630     1.2320     0.3990 os         1 HBQ      -0.430900
     19 O3           3.9990     0.7030     2.6080 o          1 HBQ      -0.592000
     20 H2           1.8420     0.9030    -0.5040 h1         1 HBQ       0.076700
     21 H5          -1.6900    -1.8420     3.0990 ha         1 HBQ       0.115000
     22 H6          -0.5480    -2.5700     5.1720 ha         1 HBQ       0.122000
     23 H8           3.1390    -0.9460     3.7010 ha         1 HBQ       0.159000
     24 H91          3.0970    -1.2180    -0.8010 hc         1 HBQ       0.022200
     25 H92          1.6290    -2.1090    -0.3880 hc         1 HBQ       0.022200
     26 H101         0.5770    -1.5570    -2.3500 hc         1 HBQ       0.013367
     27 H102         1.4730    -0.0430    -2.5290 hc         1 HBQ       0.013367
     28 H103         2.2580    -1.5850    -2.9000 hc         1 HBQ       0.013367
     29 H12          5.6560     1.9150     1.1140 h1         1 HBQ       0.028700
     30 H131         6.9510    -0.0040     0.1100 hc         1 HBQ       0.016533
     31 H132         5.3990    -0.7040    -0.3710 hc         1 HBQ       0.016533
     32 H133         5.7670    -0.4620     1.3420 hc         1 HBQ       0.016533
     33 H141         5.0210     2.9310    -1.1230 hc         1 HBQ       0.016533
     34 H142         5.4340     1.3760    -1.8580 hc         1 HBQ       0.016533
     35 H143         6.6770     2.3160    -1.0210 hc         1 HBQ       0.016533
     36 HN2         -1.5960    -0.7210     1.0560 hn         1 HBQ       0.177500
     37 C11          3.3880     0.6390     1.5440 c          1 HBQ       0.718100
@<TRIPOS>BOND
     1     1     2 1   
     2     1    16 1   
     3     1    17 2   
     4     2     9 1   
     5     2    15 1   
     6     2    20 1   
     7     3     4 ar  
     8     3     8 ar  
     9     3    15 1   
    10     4     5 ar  
    11     4    16 1   
    12     5     6 ar  
    13     5    21 1   
    14     6     7 ar  
    15     6    22 1   
    16     7     8 ar  
    17     7    14 1   
    18     8    23 1   
    19     9    10 1   
    20     9    24 1   
    21     9    25 1   
    22    10    26 1   
    23    10    27 1   
    24    10    28 1   
    25    11    12 1   
    26    11    13 1   
    27    11    18 1   
    28    11    29 1   
    29    12    30 1   
    30    12    31 1   
    31    12    32 1   
    32    13    33 1   
    33    13    34 1   
    34    13    35 1   
    35    15    37 1   
    36    16    36 1   
    37    18    37 1   
    38    19    37 2   
@<TRIPOS>SUBSTRUCTURE
     1 HBQ         1 TEMP              0 ****  ****    0 ROOT
