@<TRIPOS>MOLECULE
molecule
   14    13     1     0     0
SMALL
bcc


@<TRIPOS>ATOM
      1 C4           0.0000     0.0000     0.0000 c3         1 HBR      -0.098100
      2 C3           1.5300     0.0000     0.0000 c3         1 HBR       0.049100
      3 O7           2.0060     0.0000     1.3480 oh         1 HBR      -0.578800
      4 C2           2.0330    -1.2310    -0.7100 c          1 HBR       0.543100
      5 C1           2.0700    -1.2680    -2.2160 c3         1 HBR      -0.194100
      6 O2           2.4050    -2.1870    -0.0720 o          1 HBR      -0.492100
      7 H41         -0.3610     0.7600     0.6830 hc         1 HBR       0.048700
      8 H42         -0.3610     0.2110    -0.9990 hc         1 HBR       0.048700
      9 H43         -0.3610    -0.9710     0.3170 hc         1 HBR       0.048700
     10 H3           1.8910     0.8840    -0.5110 h1         1 HBR       0.040700
     11 HO7          2.5130     0.7800     1.5020 ho         1 HBR       0.402000
     12 H11          1.1790    -1.7600    -2.5870 hc         1 HBR       0.060700
     13 H12          2.1120    -0.2570    -2.6010 hc         1 HBR       0.060700
     14 H13          2.9470    -1.8160    -2.5410 hc         1 HBR       0.060700
@<TRIPOS>BOND
     1     1     2 1
     2     1     7 1
     3     1     8 1
     4     1     9 1
     5     2     3 1
     6     2     4 1
     7     2    10 1
     8     3    11 1
     9     4     5 1
    10     4     6 2
    11     5    12 1
    12     5    13 1
    13     5    14 1
@<TRIPOS>SUBSTRUCTURE
     1 HBR         1 TEMP              0 ****  ****    0 ROOT
