@<TRIPOS>MOLECULE
HBR
   14    13     1     0     0
SMALL
bcc


@<TRIPOS>ATOM
      1 C4         -0.0190   -0.2550    0.0890 c3        1 HBR     -0.124100
      2 C3          1.4430    0.1240   -0.0720 c3        1 HBR      0.044100
      3 O7          2.0250    0.4410    1.1790 oh        1 HBR     -0.586800
      4 C2          2.2000   -1.0030   -0.7570 c         1 HBR      0.538100
      5 C1          2.1710   -1.0010   -2.2470 c3        1 HBR     -0.200100
      6 O2          2.7990   -1.8530   -0.0910 o         1 HBR     -0.529100
      7 H41        -0.4940   -0.3980   -0.9100 hc        1 HBR      0.050033
      8 H42        -0.1150   -1.1990    0.6770 hc        1 HBR      0.050033
      9 H43        -0.5550    0.5580    0.6350 hc        1 HBR      0.050033
     10 H3          1.5420    1.0730   -0.6730 h1        1 HBR      0.087700
     11 HO7         2.1510   -0.3890    1.6590 ho        1 HBR      0.417000
     12 H11         1.1240   -0.8540   -2.6100 hc        1 HBR      0.068033
     13 H12         2.5690   -1.9620   -2.6550 hc        1 HBR      0.068033
     14 H13         2.8020   -0.1600   -2.6260 hc        1 HBR      0.068033
@<TRIPOS>BOND
     1    1    2 1   
     2    1    7 1   
     3    1    8 1   
     4    1    9 1   
     5    2    3 1   
     6    2    4 1   
     7    2   10 1   
     8    3   11 1   
     9    4    5 1   
    10    4    6 2   
    11    5   12 1   
    12    5   13 1   
    13    5   14 1   
@<TRIPOS>SUBSTRUCTURE
     1 HBR         1 TEMP              0 ****  ****    0 ROOT
