@<TRIPOS>MOLECULE
molecule
   14    13     1     0     0
SMALL
bcc


@<TRIPOS>ATOM
      1 C4           0.0000     0.0000     0.0000 c3         1 HBS      -0.098100
      2 C3           1.5300     0.0000     0.0000 c3         1 HBS       0.049100
      3 O7           2.0070     0.0000     1.3470 oh         1 HBS      -0.578800
      4 C2           2.0310     1.2300    -0.7110 c          1 HBS       0.543100
      5 C1           1.9630     1.3140    -2.2140 c3         1 HBS      -0.194100
      6 O2           2.4880     2.1510    -0.0760 o          1 HBS      -0.492100
      7 H41         -0.3610     0.9820     0.2790 hc         1 HBS       0.048367
      8 H42         -0.3610    -0.2500    -0.9900 hc         1 HBS       0.048367
      9 H43         -0.3610    -0.7330     0.7110 hc         1 HBS       0.048367
     10 H3           1.8910    -0.8850    -0.5110 h1         1 HBS       0.041700
     11 HO7          2.5140    -0.7800     1.5000 ho         1 HBS       0.402000
     12 H11          1.9570     0.3140    -2.6320 hc         1 HBS       0.060700
     13 H12          2.8250     1.8550    -2.5850 hc         1 HBS       0.060700
     14 H13          1.0580     1.8330    -2.5060 hc         1 HBS       0.060700
@<TRIPOS>BOND
     1     1     2 1
     2     1     7 1
     3     1     8 1
     4     1     9 1
     5     2     3 1
     6     2     4 1
     7     2    10 1
     8     3    11 1
     9     4     5 1
    10     4     6 2
    11     5    12 1
    12     5    13 1
    13     5    14 1
@<TRIPOS>SUBSTRUCTURE
     1 HBS         1 TEMP              0 ****  ****    0 ROOT
