@<TRIPOS>MOLECULE
HBS
   14    13     1     0     0
SMALL
bcc


@<TRIPOS>ATOM
      1 C4         -0.0120    0.1970    0.1370 c3        1 HBS     -0.124100
      2 C3          1.4470   -0.1450   -0.1170 c3        1 HBS      0.044100
      3 O7          2.0920   -0.5340    1.0810 oh        1 HBS     -0.586800
      4 C2          2.1530    1.0390   -0.7580 c         1 HBS      0.538100
      5 C1          2.0540    1.1360   -2.2420 c3        1 HBS     -0.200100
      6 O2          2.7700    1.8540   -0.0650 o         1 HBS     -0.529100
      7 H41        -0.5350    0.3980   -0.8270 hc        1 HBS      0.050033
      8 H42        -0.0940    1.0970    0.7910 hc        1 HBS      0.050033
      9 H43        -0.5090   -0.6600    0.6510 hc        1 HBS      0.050033
     10 H3          1.5310   -1.0490   -0.7850 h1        1 HBS      0.087700
     11 HO7         2.2290    0.2640    1.6100 ho        1 HBS      0.417000
     12 H11         2.6820    0.3360   -2.7060 hc        1 HBS      0.068033
     13 H12         2.4160    2.1300   -2.6020 hc        1 HBS      0.068033
     14 H13         0.9940    0.9920   -2.5660 hc        1 HBS      0.068033
@<TRIPOS>BOND
     1    1    2 1   
     2    1    7 1   
     3    1    8 1   
     4    1    9 1   
     5    2    3 1   
     6    2    4 1   
     7    2   10 1   
     8    3   11 1   
     9    4    5 1   
    10    4    6 2   
    11    5   12 1   
    12    5   13 1   
    13    5   14 1   
@<TRIPOS>SUBSTRUCTURE
     1 HBS         1 TEMP              0 ****  ****    0 ROOT
