@<TRIPOS>MOLECULE
molecule
   43    45     1     0     0
SMALL
bcc


@<TRIPOS>ATOM
      1 O2           0.0000     0.0000     0.0000 o          1 HBT      -0.167000
      2 N2           1.2180     0.0000     0.0000 no         1 HBT       0.288200
      3 O3           1.8270     0.0000     1.0550 o          1 HBT      -0.167000
      4 C13          1.9580    -0.0080    -1.2820 ca         1 HBT      -0.077200
      5 C12          2.9560     0.9160    -1.5090 ca         1 HBT      -0.075000
      6 C11          3.6500     0.9100    -2.7070 ca         1 HBT      -0.081000
      7 C10          3.3470    -0.0210    -3.6850 ca         1 HBT      -0.100000
      8 C9           2.3500    -0.9510    -3.4700 ca         1 HBT      -0.109000
      9 C8           1.6510    -0.9540    -2.2620 ca         1 HBT      -0.117600
     10 C7           0.5870    -1.9510    -2.0230 c          1 HBT       0.664700
     11 O1           0.0630    -2.0320    -0.9290 o          1 HBT      -0.521100
     12 N1           0.1960    -2.7720    -3.0180 ns         1 HBT      -0.444100
     13 C6          -0.8020    -3.7070    -2.7940 cc         1 HBT       0.106500
     14 C14         -1.2710    -4.5830    -3.7330 cd         1 HBT      -0.352600
     15 C15         -0.7650    -4.6370    -5.1080 c          1 HBT       0.540700
     16 N3          -1.3370    -3.8830    -6.0670 nz         1 HBT      -0.684400
     17 O4           0.1720    -5.3640    -5.3830 o          1 HBT      -0.398100
     18 S1          -1.6080    -3.9250    -1.3100 ss         1 HBT       0.183200
     19 C5          -2.6080    -5.2190    -1.9480 cc         1 HBT      -0.079400
     20 C4          -3.6590    -5.9750    -1.1570 c3         1 HBT       0.001900
     21 C3          -4.0070    -7.2640    -1.9060 c3         1 HBT      -0.074700
     22 C1          -5.2340    -7.9140    -1.2640 c3         1 HBT      -0.088100
     23 C2          -4.3130    -6.9240    -3.3680 c3         1 HBT      -0.076400
     24 C17         -3.0170    -6.5140    -4.0710 c3         1 HBT      -0.021100
     25 C16         -2.3190    -5.4550    -3.2330 cd         1 HBT      -0.069300
     26 H12          3.1990     1.6480    -0.7480 ha         1 HBT       0.179000
     27 H11          4.4330     1.6380    -2.8800 ha         1 HBT       0.166000
     28 H10          3.8920    -0.0190    -4.6210 ha         1 HBT       0.155000
     29 H9           2.1150    -1.6810    -4.2350 ha         1 HBT       0.120000
     30 HN1          0.6380    -2.7170    -3.9140 hn         1 HBT       0.318500
     31 HN3         -1.7060    -4.4770    -6.7830 hn         1 HBT       0.474800
     32 HN3A        -0.6510    -3.2700    -6.4620 hn         1 HBT       0.474800
     33 H4          -3.2670    -6.2200    -0.1770 hc         1 HBT       0.070700
     34 H4A         -4.5470    -5.3630    -1.0570 hc         1 HBT       0.070700
     35 H3          -3.1650    -7.9450    -1.8620 hc         1 HBT       0.063700
     36 H1          -5.0450    -8.0790    -0.2100 hc         1 HBT       0.045367
     37 H1A         -6.0900    -7.2610    -1.3790 hc         1 HBT       0.045367
     38 H1B         -5.4350    -8.8620    -1.7470 hc         1 HBT       0.045367
     39 H2          -4.6910    -7.8170    -3.8510 hc         1 HBT       0.060200
     40 H2A         -4.9890    -6.0780    -3.3840 hc         1 HBT       0.060200
     41 H17         -3.2740    -6.0760    -5.0270 hc         1 HBT       0.048200
     42 H17A        -2.3720    -7.3830    -4.1270 hc         1 HBT       0.048200
     43 H33         -2.0940    -3.3600    -5.6730 hn         1 HBT       0.474800
@<TRIPOS>BOND
     1     1     2 1
     2     2     3 1
     3     2     4 1
     4     4     5 ar
     5     4     9 ar
     6     5     6 ar
     7     6     7 ar
     8     7     8 ar
     9     8     9 ar
    10     9    10 1
    11    10    11 2
    12    10    12 1
    13    12    13 1
    14    13    14 2
    15    13    18 1
    16    14    15 1
    17    14    25 1
    18    15    16 1
    19    15    17 2
    20    18    19 1
    21    19    20 1
    22    19    25 2
    23    20    21 1
    24    21    22 1
    25    21    23 1
    26    23    24 1
    27    24    25 1
    28     5    26 1
    29     6    27 1
    30     7    28 1
    31     8    29 1
    32    12    30 1
    33    16    31 1
    34    16    32 1
    35    20    33 1
    36    20    34 1
    37    21    35 1
    38    22    36 1
    39    22    37 1
    40    22    38 1
    41    23    39 1
    42    23    40 1
    43    24    41 1
    44    24    42 1
    45    43    16 1
@<TRIPOS>SUBSTRUCTURE
     1 HBT         1 TEMP              0 ****  ****    0 ROOT
