@<TRIPOS>MOLECULE
molecule
   18    17     1     0     0
SMALL
bcc


@<TRIPOS>ATOM
      1 O1           0.0000     0.0000     0.0000 o          1 HBU      -0.851800
      2 C2           1.3430     0.0000     0.0000 c          1 HBU       0.888600
      3 O3           1.9460     0.0000     1.0450 o          1 HBU      -0.851800
      4 C4           2.0950     0.0010    -1.3050 c3         1 HBU      -0.279400
      5 C5           3.5770    -0.0000    -1.0300 c          1 HBU       0.568100
      6 O8           3.9790    -0.0000     0.1080 o          1 HBU      -0.429100
      7 C9           4.5560     0.0000    -2.1740 c3         1 HBU      -0.377600
      8 P10          6.2580     0.0010    -1.5190 p5         1 HBU       1.010400
      9 O13          6.4660    -1.2090    -0.6920 o          1 HBU      -0.806500
     10 O14          6.4850     1.3140    -0.6170 o          1 HBU      -0.806500
     11 C15          7.4420     0.0000    -2.9040 c3         1 HBU      -0.297300
     12 HC41         1.8330    -0.8830    -1.8740 hc         1 HBU       0.032200
     13 HC42         1.8340     0.8860    -1.8720 hc         1 HBU       0.032200
     14 HC91         4.4020     0.8850    -2.7810 hc         1 HBU       0.039700
     15 HC92         4.4020    -0.8840    -2.7810 hc         1 HBU       0.039700
     16 H151         8.4530    -0.0000    -2.5150 hc         1 HBU       0.029367
     17 H152         7.2890    -0.8840    -3.5110 hc         1 HBU       0.029367
     18 H153         7.2900     0.8850    -3.5110 hc         1 HBU       0.029367
@<TRIPOS>BOND
     1     1     2 1
     2     2     3 1
     3     2     4 1
     4     4     5 1
     5     4    12 1
     6     4    13 1
     7     5     6 2
     8     5     7 1
     9     7     8 1
    10     7    14 1
    11     7    15 1
    12     8     9 1
    13     8    10 1
    14     8    11 1
    15    11    16 1
    16    11    17 1
    17    11    18 1
@<TRIPOS>SUBSTRUCTURE
     1 HBU         1 TEMP              0 ****  ****    0 ROOT
