@<TRIPOS>MOLECULE
HBU
   18    17     1     0     0
SMALL
bcc


@<TRIPOS>ATOM
      1 O1          1.2800   -0.8500   -2.1690 o         1 HBU     -0.859300
      2 C2          1.5700   -0.6070   -0.9600 c         1 HBU      0.919600
      3 O3          1.1030   -1.2770    0.0070 o         1 HBU     -0.859300
      4 C4          2.4560    0.6140   -0.6520 c3        1 HBU     -0.285400
      5 C5          3.9100    0.3200   -0.4820 c         1 HBU      0.628100
      6 O8          4.5430    0.6390    0.5380 o         1 HBU     -0.596100
      7 C9          4.6650   -0.2970   -1.5990 c3        1 HBU     -0.443600
      8 P10         6.2710    0.2820   -1.5350 p5        1 HBU      1.281400
      9 O13         7.1290   -0.5550   -0.6530 o         1 HBU     -0.897000
     10 O14         6.3250    1.7690   -1.4820 o         1 HBU     -0.897000
     11 C15         6.7100   -0.1460   -3.1500 c3        1 HBU     -0.346300
     12 HC41        2.3570    1.3350   -1.5050 hc        1 HBU      0.041200
     13 HC42        2.0640    1.1010    0.2780 hc        1 HBU      0.041200
     14 HC91        4.6470   -1.4070   -1.4620 hc        1 HBU      0.090200
     15 HC92        4.1540   -0.0890   -2.5680 hc        1 HBU      0.090200
     16 H151        7.8020    0.0090   -3.2840 hc        1 HBU      0.029700
     17 H152        6.4860   -1.2120   -3.3640 hc        1 HBU      0.029700
     18 H153        6.1770    0.4840   -3.8920 hc        1 HBU      0.029700
@<TRIPOS>BOND
     1    1    2 1   
     2    2    3 1   
     3    2    4 1   
     4    4    5 1   
     5    4   12 1   
     6    4   13 1   
     7    5    6 2   
     8    5    7 1   
     9    7    8 1   
    10    7   14 1   
    11    7   15 1   
    12    8    9 1   
    13    8   10 1   
    14    8   11 1   
    15   11   16 1   
    16   11   17 1   
    17   11   18 1   
@<TRIPOS>SUBSTRUCTURE
     1 HBU         1 TEMP              0 ****  ****    0 ROOT
