@<TRIPOS>MOLECULE
HBV
   52    55     1     0     0
SMALL
bcc


@<TRIPOS>ATOM
      1 C10          1.5310     0.0000     0.0000 c3         1 HBV       0.151800
      2 C13         -2.0400     0.0000     1.4430 c3         1 HBV      -0.038700
      3 C01          2.2220     1.5440    -1.7320 c3         1 HBV       0.115100
      4 C02          3.2520    -0.6410    -1.5770 c3         1 HBV       0.206100
      5 C03          3.5890    -0.6830    -3.0450 ca         1 HBV      -0.092300
      6 C04          4.2130     0.4010    -3.6420 ca         1 HBV       0.099900
      7 C05          4.5240     0.3670    -4.9880 ca         1 HBV      -0.064000
      8 C06          4.2070    -0.7620    -5.7450 ca         1 HBV      -0.129600
      9 C07          4.5360    -0.8050    -7.1860 c          1 HBV       0.593700
     10 C08          3.5770    -1.8490    -5.1370 ca         1 HBV      -0.102000
     11 C11          0.0000     0.0000     0.0000 c3         1 HBV      -0.052000
     12 C09          3.2780    -1.8060    -3.7910 ca         1 HBV      -0.067000
     13 C12         -0.5090     0.0000     1.4430 c3         1 HBV      -0.019400
     14 C14         -2.5500    -1.2480     0.7220 c3         1 HBV      -0.015733
     15 C15         -2.0400    -1.2490    -0.7210 c3         1 HBV      -0.038700
     16 C16         -2.5510     0.0000    -1.4420 c3         1 HBV      -0.015733
     17 C17         -2.0390     1.2490    -0.7210 c3         1 HBV      -0.038700
     18 C18         -0.5100     1.2490    -0.7210 c3         1 HBV      -0.019400
     19 C19         -2.5490     1.2490     0.7210 c3         1 HBV      -0.015733
     20 C20         -0.5100    -1.2490    -0.7210 c3         1 HBV      -0.019400
     21 F01          4.5180     1.4920    -2.9060 f          1 HBV      -0.122900
     22 N01          2.0200     0.1330    -1.3790 n3         1 HBV      -0.531600
     23 N02          4.2280    -1.8960    -7.9150 ns         1 HBV      -0.057400
     24 O01          4.5450    -1.9380    -9.2940 oh         1 HBV      -0.435100
     25 O02          5.0840     0.1440    -7.7130 o          1 HBV      -0.615100
     26 H1           1.8920     0.8310     0.5930 h1         1 HBV       0.014200
     27 H2           1.8920    -0.9290     0.4230 h1         1 HBV       0.014200
     28 H3          -2.4010     0.0000     2.4650 hc         1 HBV       0.021367
     29 H4           1.9810     1.6930    -2.7780 h1         1 HBV       0.022700
     30 H5           3.2570     1.8150    -1.5580 h1         1 HBV       0.022700
     31 H6           1.5780     2.1650    -1.1210 h1         1 HBV       0.022700
     32 H7           4.0640    -0.1730    -1.0340 h1         1 HBV       0.018700
     33 H8           3.1080    -1.6500    -1.2110 h1         1 HBV       0.018700
     34 H9           5.0120     1.2140    -5.4550 ha         1 HBV       0.145000
     35 H10          3.3310    -2.7290    -5.7200 ha         1 HBV       0.101000
     36 H11          2.7900    -2.6500    -3.3190 ha         1 HBV       0.114000
     37 H12         -0.1480     0.8850     1.9540 hc         1 HBV       0.021533
     38 H13         -0.1480    -0.8850     1.9540 hc         1 HBV       0.021533
     39 H14         -2.1890    -2.1330     1.2330 hc         1 HBV       0.013700
     40 H15         -3.6330    -1.2480     0.7220 hc         1 HBV       0.013700
     41 H16         -2.4020    -2.1340    -1.2310 hc         1 HBV       0.021367
     42 H17         -3.6340     0.0010    -1.4410 hc         1 HBV       0.013700
     43 H18         -2.1910     0.0000    -2.4630 hc         1 HBV       0.013700
     44 H19         -2.4000     2.1340    -1.2310 hc         1 HBV       0.021367
     45 H20         -0.1490     2.1340    -0.2100 hc         1 HBV       0.021533
     46 H21         -0.1490     1.2500    -1.7420 hc         1 HBV       0.021533
     47 H22         -3.6330     1.2500     0.7210 hc         1 HBV       0.013700
     48 H23         -2.1880     2.1340     1.2320 hc         1 HBV       0.013700
     49 H24         -0.1490    -1.2500    -1.7420 hc         1 HBV       0.021533
     50 H25         -0.1490    -2.1340    -0.2100 hc         1 HBV       0.021533
     51 H27          3.7470    -2.6630    -7.4880 hn         1 HBV       0.161500
     52 H28          4.3400    -2.7920    -9.6380 ho         1 HBV       0.392000
@<TRIPOS>BOND
     1     1    11 1   
     2     1    22 1   
     3     1    26 1   
     4     1    27 1   
     5     2    13 1   
     6     2    14 1   
     7     2    19 1   
     8     2    28 1   
     9     3    22 1   
    10     3    29 1   
    11     3    30 1   
    12     3    31 1   
    13     4     5 1   
    14     4    22 1   
    15     4    32 1   
    16     4    33 1   
    17     5     6 ar  
    18     5    12 ar  
    19     6     7 ar  
    20     6    21 1   
    21     7     8 ar  
    22     7    34 1   
    23     8     9 1   
    24     8    10 ar  
    25     9    23 1   
    26     9    25 2   
    27    10    12 ar  
    28    10    35 1   
    29    11    13 1   
    30    11    18 1   
    31    11    20 1   
    32    12    36 1   
    33    13    37 1   
    34    13    38 1   
    35    14    15 1   
    36    14    39 1   
    37    14    40 1   
    38    15    16 1   
    39    15    20 1   
    40    15    41 1   
    41    16    17 1   
    42    16    42 1   
    43    16    43 1   
    44    17    18 1   
    45    17    19 1   
    46    17    44 1   
    47    18    45 1   
    48    18    46 1   
    49    19    47 1   
    50    19    48 1   
    51    20    49 1   
    52    20    50 1   
    53    23    24 1   
    54    23    51 1   
    55    24    52 1   
@<TRIPOS>SUBSTRUCTURE
     1 HBV         1 TEMP              0 ****  ****    0 ROOT
