@<TRIPOS>MOLECULE
molecule
   52    55     1     0     0
SMALL
bcc


@<TRIPOS>ATOM
      1 C10          1.5310     0.0000     0.0000 c3         1 HBV       0.168800
      2 C13         -2.0400     0.0000     1.4430 c3         1 HBV      -0.065033
      3 C01          2.2220     1.5440    -1.7320 c3         1 HBV       0.122100
      4 C02          3.2520    -0.6410    -1.5770 c3         1 HBV       0.206100
      5 C03          3.5890    -0.6830    -3.0450 ca         1 HBV      -0.087300
      6 C04          4.2130     0.4010    -3.6420 ca         1 HBV       0.126900
      7 C05          4.5240     0.3670    -4.9880 ca         1 HBV      -0.103000
      8 C06          4.2070    -0.7620    -5.7450 ca         1 HBV      -0.116600
      9 C07          4.5360    -0.8050    -7.1860 c          1 HBV       0.686700
     10 C08          3.5770    -1.8490    -5.1370 ca         1 HBV      -0.125000
     11 C11          0.0000     0.0000     0.0000 c3         1 HBV      -0.048000
     12 C09          3.2780    -1.8060    -3.7910 ca         1 HBV      -0.096000
     13 C12         -0.5090     0.0000     1.4430 c3         1 HBV      -0.061400
     14 C14         -2.5500    -1.2480     0.7220 c3         1 HBV      -0.067400
     15 C15         -2.0400    -1.2490    -0.7210 c3         1 HBV      -0.065033
     16 C16         -2.5510     0.0000    -1.4420 c3         1 HBV      -0.067400
     17 C17         -2.0390     1.2490    -0.7210 c3         1 HBV      -0.065033
     18 C18         -0.5100     1.2490    -0.7210 c3         1 HBV      -0.061400
     19 C19         -2.5490     1.2490     0.7210 c3         1 HBV      -0.067400
     20 C20         -0.5100    -1.2490    -0.7210 c3         1 HBV      -0.061400
     21 F01          4.5180     1.4920    -2.9060 f          1 HBV      -0.133900
     22 N01          2.0200     0.1330    -1.3790 n3         1 HBV      -0.726600
     23 N02          4.2280    -1.8960    -7.9150 ns         1 HBV      -0.469400
     24 O01          4.5450    -1.9380    -9.2940 oh         1 HBV      -0.358100
     25 O02          5.0840     0.1440    -7.7130 o          1 HBV      -0.569100
     26 H1           1.8920     0.8310     0.5930 h1         1 HBV       0.034700
     27 H2           1.8920    -0.9290     0.4230 h1         1 HBV       0.034700
     28 H3          -2.4010     0.0000     2.4650 hc         1 HBV       0.046033
     29 H4           1.9810     1.6930    -2.7780 h1         1 HBV       0.044700
     30 H5           3.2570     1.8150    -1.5580 h1         1 HBV       0.044700
     31 H6           1.5780     2.1650    -1.1210 h1         1 HBV       0.044700
     32 H7           4.0640    -0.1730    -1.0340 h1         1 HBV       0.046200
     33 H8           3.1080    -1.6500    -1.2110 h1         1 HBV       0.046200
     34 H9           5.0120     1.2140    -5.4550 ha         1 HBV       0.175000
     35 H10          3.3310    -2.7290    -5.7200 ha         1 HBV       0.125000
     36 H11          2.7900    -2.6500    -3.3190 ha         1 HBV       0.144000
     37 H12         -0.1480     0.8850     1.9540 hc         1 HBV       0.044200
     38 H13         -0.1480    -0.8850     1.9540 hc         1 HBV       0.044200
     39 H14         -2.1890    -2.1330     1.2330 hc         1 HBV       0.039700
     40 H15         -3.6330    -1.2480     0.7220 hc         1 HBV       0.039700
     41 H16         -2.4020    -2.1340    -1.2310 hc         1 HBV       0.046033
     42 H17         -3.6340     0.0010    -1.4410 hc         1 HBV       0.039700
     43 H18         -2.1910     0.0000    -2.4630 hc         1 HBV       0.039700
     44 H19         -2.4000     2.1340    -1.2310 hc         1 HBV       0.046033
     45 H20         -0.1490     2.1340    -0.2100 hc         1 HBV       0.044200
     46 H21         -0.1490     1.2500    -1.7420 hc         1 HBV       0.044200
     47 H22         -3.6330     1.2500     0.7210 hc         1 HBV       0.039700
     48 H23         -2.1880     2.1340     1.2320 hc         1 HBV       0.039700
     49 H24         -0.1490    -1.2500    -1.7420 hc         1 HBV       0.044200
     50 H25         -0.1490    -2.1340    -0.2100 hc         1 HBV       0.044200
     51 H27          3.7470    -2.6630    -7.4880 hn         1 HBV       0.321500
     52 H28          4.3400    -2.7920    -9.6380 ho         1 HBV       0.399000
@<TRIPOS>BOND
     1    19    17 1
     2    19     2 1
     3     3    22 1
     4    18    17 1
     5    18    11 1
     6    13     2 1
     7    13    11 1
     8    17    16 1
     9     2    14 1
    10     1    11 1
    11     1    22 1
    12    11    20 1
    13    22     4 1
    14    16    15 1
    15    14    15 1
    16     4     5 1
    17    20    15 1
    18    12     5 ar
    19    12    10 ar
    20     5     6 ar
    21    10     8 ar
    22     6    21 1
    23     6     7 ar
    24     8     7 ar
    25     8     9 1
    26     9    25 2
    27     9    23 1
    28    23    24 1
    29     1    26 1
    30     1    27 1
    31     2    28 1
    32     3    29 1
    33     3    30 1
    34     3    31 1
    35     4    32 1
    36     4    33 1
    37     7    34 1
    38    10    35 1
    39    12    36 1
    40    13    37 1
    41    13    38 1
    42    14    39 1
    43    14    40 1
    44    15    41 1
    45    16    42 1
    46    16    43 1
    47    17    44 1
    48    18    45 1
    49    18    46 1
    50    19    47 1
    51    19    48 1
    52    20    49 1
    53    20    50 1
    54    23    51 1
    55    24    52 1
@<TRIPOS>SUBSTRUCTURE
     1 HBV         1 TEMP              0 ****  ****    0 ROOT
