@<TRIPOS>MOLECULE
HBY
   42    43     1     0     0
SMALL
bcc


@<TRIPOS>ATOM
      1 C1           0.0000     0.0000     0.0000 c3         1 HBY       0.029700
      2 C2           1.5070     0.0000     0.0000 cs         1 HBY       0.223400
      3 C3           1.5310    -0.0490     2.3870 ca         1 HBY      -0.246400
      4 C4           0.1780    -0.3950     2.4230 ca         1 HBY      -0.029400
      5 C5          -0.4900    -0.4640     3.6320 ca         1 HBY      -0.152000
      6 C6           0.1850    -0.1720     4.8090 ca         1 HBY       0.169100
      7 C7           1.5280     0.1750     4.7720 ca         1 HBY      -0.225000
      8 C8           2.2000     0.2360     3.5660 ca         1 HBY      -0.035000
      9 C10         -3.0550    -3.0650     2.2500 c3         1 HBY       0.199100
     10 C12         -2.8870    -4.1240     3.3410 c3         1 HBY      -0.017100
     11 C11         -4.3600    -2.3010     2.4780 c3         1 HBY      -0.017100
     12 C13         -0.5120     1.4410    -0.0230 c3         1 HBY       0.047700
     13 C14         -2.6440     3.2230    -0.0530 c3         1 HBY       0.112000
     14 C15          0.4830     0.1100     7.0100 c3         1 HBY       0.214700
     15 N1          -0.4790    -0.6750     1.2160 n          1 HBY       0.015000
     16 N2           2.1960     0.0000     1.1570 ns         1 HBY       0.217900
     17 O1          -2.0710    -1.7620     0.1160 o          1 HBY      -0.612000
     18 O2          -1.9370    -2.1390     2.2970 os         1 HBY      -0.417900
     19 O3          -0.4690    -0.2310     5.9990 os         1 HBY      -0.272900
     20 S1           2.3520    -0.0000    -1.4890 s          1 HBY      -0.601400
     21 S2          -2.3260     1.4370    -0.0230 ss         1 HBY      -0.373200
     22 H1          -0.3600    -0.5320    -0.8720 h1         1 HBY       0.121700
     23 H5          -1.5390    -0.7350     3.6590 ha         1 HBY       0.163000
     24 H7           2.0520     0.4020     5.6930 ha         1 HBY       0.141000
     25 H8           3.2480     0.5070     3.5420 ha         1 HBY       0.111000
     26 H10         -3.0900    -3.5470     1.2810 h1         1 HBY       0.038700
     27 H121        -3.5790    -4.9380     3.1640 hc         1 HBY       0.014533
     28 H122        -1.8720    -4.5030     3.3240 hc         1 HBY       0.014533
     29 H123        -3.0900    -3.6820     4.3090 hc         1 HBY       0.014533
     30 H111        -5.1810    -3.0030     2.5510 hc         1 HBY       0.014533
     31 H112        -4.5330    -1.6270     1.6480 hc         1 HBY       0.014533
     32 H113        -4.2890    -1.7310     3.3970 hc         1 HBY       0.014533
     33 H131        -0.1510     1.9660     0.8530 h1         1 HBY       0.052700
     34 H132        -0.1520     1.9370    -0.9160 h1         1 HBY       0.052700
     35 H141        -2.2330     3.6780     0.8400 h1         1 HBY       0.032367
     36 H142        -3.7130     3.3990    -0.0880 h1         1 HBY       0.032367
     37 H143        -2.1770     3.6590    -0.9280 h1         1 HBY       0.032367
     38 H151         0.0040     0.0770     7.9820 h1         1 HBY       0.005367
     39 H152         0.8610     1.1090     6.8270 h1         1 HBY       0.005367
     40 H153         1.3030    -0.5970     6.9880 h1         1 HBY       0.005367
     41 HN2          3.1960     0.0340     1.1360 hn         1 HBY       0.184500
     42 C9          -1.5160    -1.5340     1.1720 c          1 HBY       0.701100
@<TRIPOS>BOND
     1     1     2 1   
     2     1    12 1   
     3     1    15 1   
     4     1    22 1   
     5     2    16 1   
     6     2    20 2   
     7     3     4 ar  
     8     3     8 ar  
     9     3    16 1   
    10     4     5 ar  
    11     4    15 1   
    12     5     6 ar  
    13     5    23 1   
    14     6     7 ar  
    15     6    19 1   
    16     7     8 ar  
    17     7    24 1   
    18     8    25 1   
    19     9    10 1   
    20     9    11 1   
    21     9    18 1   
    22     9    26 1   
    23    10    27 1   
    24    10    28 1   
    25    10    29 1   
    26    11    30 1   
    27    11    31 1   
    28    11    32 1   
    29    12    21 1   
    30    12    33 1   
    31    12    34 1   
    32    13    21 1   
    33    13    35 1   
    34    13    36 1   
    35    13    37 1   
    36    14    19 1   
    37    14    38 1   
    38    14    39 1   
    39    14    40 1   
    40    15    42 1   
    41    16    41 1   
    42    17    42 2   
    43    18    42 1   
@<TRIPOS>SUBSTRUCTURE
     1 HBY         1 TEMP              0 ****  ****    0 ROOT
