@<TRIPOS>MOLECULE
HBZ
   42    43     1     0     0
SMALL
bcc


@<TRIPOS>ATOM
      1 O5           0.0000     0.0000     0.0000 os         1 HBZ      -0.399600
      2 C1           1.4280     0.0000     0.0000 c3         1 HBZ       0.238500
      3 C2           1.9380     0.0000     1.4440 c3         1 HBZ       0.129100
      4 O2           3.3650    -0.0600     1.4460 oh         1 HBZ      -0.575800
      5 C3           1.3730    -1.2220     2.1760 c3         1 HBZ       0.146100
      6 O3           1.7830    -1.1910     3.5440 oh         1 HBZ      -0.591800
      7 C4          -0.1560    -1.1880     2.0990 c3         1 HBZ       0.137100
      8 O4          -0.6920    -2.3610     2.7160 oh         1 HBZ      -0.579800
      9 C5          -0.5840    -1.1420     0.6290 c3         1 HBZ       0.173100
     10 C6          -2.1090    -1.0470     0.5450 c3         1 HBZ       0.225400
     11 O6          -2.5170    -1.1200    -0.8230 oh         1 HBZ      -0.575800
     12 N1           1.9170     1.1960    -0.6910 ns         1 HBZ      -0.192900
     13 C7           2.2380     1.1350    -1.9980 c          1 HBZ       0.568100
     14 O7           2.1220     0.0890    -2.6040 o          1 HBZ      -0.611100
     15 N2           2.6880     2.2350    -2.6330 ns         1 HBZ      -0.180500
     16 C8           3.0090     2.1740    -3.9410 c          1 HBZ       0.589700
     17 O8           2.8920     1.1280    -4.5480 o          1 HBZ      -0.548100
     18 C9           3.5020     3.3790    -4.6360 ca         1 HBZ      -0.182600
     19 C10          3.8340     3.3190    -5.9920 ca         1 HBZ      -0.037000
     20 C11          4.2930     4.4450    -6.6370 ca         1 HBZ      -0.149500
     21 C12          4.4260     5.6410    -5.9420 ca         1 HBZ       0.151100
     22 C13          4.0960     5.7060    -4.5930 ca         1 HBZ      -0.149500
     23 C14          3.6310     4.5860    -3.9410 ca         1 HBZ      -0.037000
     24 O12          4.8790     6.7490    -6.5810 oh         1 HBZ      -0.501100
     25 H1           1.7870    -0.8870    -0.5070 h2         1 HBZ       0.065700
     26 H2           1.6070     0.9030     1.9420 h1         1 HBZ       0.016700
     27 HO2          3.7000     0.4500     2.1650 ho         1 HBZ       0.398000
     28 H3           1.7370    -2.1260     1.7030 h1         1 HBZ       0.032700
     29 HO3          2.2570    -1.9800     3.7480 ho         1 HBZ       0.403000
     30 H4          -0.5230    -0.3050     2.6090 h1         1 HBZ       0.019700
     31 HO4         -1.0420    -2.1390     3.5630 ho         1 HBZ       0.398000
     32 H5          -0.2450    -2.0400     0.1290 h1         1 HBZ       0.037700
     33 H6          -2.5530    -1.8660     1.0980 h1         1 HBZ      -0.004300
     34 H6A         -2.4370    -0.1060     0.9690 h1         1 HBZ      -0.004300
     35 HO6         -3.4430    -1.2920    -0.8670 ho         1 HBZ       0.387000
     36 HN1          2.0140     2.0580    -0.1910 hn         1 HBZ       0.162500
     37 HN2          2.7930     3.0950    -2.1320 hn         1 HBZ       0.168500
     38 H10          3.7320     2.3870    -6.5350 ha         1 HBZ       0.113500
     39 H11          4.5510     4.3990    -7.6880 ha         1 HBZ       0.118000
     40 H13          4.1990     6.6410    -4.0560 ha         1 HBZ       0.118000
     41 H14          3.3750     4.6370    -2.8900 ha         1 HBZ       0.113500
     42 HO12         4.1490     7.2260    -6.9390 ho         1 HBZ       0.407000
@<TRIPOS>BOND
     1     1     2 1   
     2     1     9 1   
     3     2     3 1   
     4     2    12 1   
     5     2    25 1   
     6     3     4 1   
     7     3     5 1   
     8     3    26 1   
     9     4    27 1   
    10     5     6 1   
    11     5     7 1   
    12     5    28 1   
    13     6    29 1   
    14     7     8 1   
    15     7     9 1   
    16     7    30 1   
    17     8    31 1   
    18     9    10 1   
    19     9    32 1   
    20    10    11 1   
    21    10    33 1   
    22    10    34 1   
    23    11    35 1   
    24    12    13 1   
    25    12    36 1   
    26    13    14 2   
    27    13    15 1   
    28    15    16 1   
    29    15    37 1   
    30    16    17 2   
    31    16    18 1   
    32    18    19 ar  
    33    18    23 ar  
    34    19    20 ar  
    35    19    38 1   
    36    20    21 ar  
    37    20    39 1   
    38    21    22 ar  
    39    21    24 1   
    40    22    23 ar  
    41    22    40 1   
    42    23    41 1   
    43    24    42 1   
@<TRIPOS>SUBSTRUCTURE
     1 HBZ         1 TEMP              0 ****  ****    0 ROOT
