@<TRIPOS>MOLECULE
HC2
   75    78     1     0     0
SMALL
bcc


@<TRIPOS>ATOM
      1 C1          0.1210   -0.2410   -0.1650 c3        1 HC2     -0.066400
      2 C2          1.5520    0.2100    0.0090 c3        1 HC2     -0.113400
      3 C3          1.7920    0.6850    1.4370 c3        1 HC2      0.145100
      4 C4          1.4500   -0.4180    2.4340 c3        1 HC2     -0.039200
      5 C5          0.0770   -0.9580    2.2140 c2        1 HC2     -0.109400
      6 C6         -0.7570   -1.1030    3.2540 c2        1 HC2     -0.166200
      7 C7         -2.1250   -1.6540    3.1610 c3        1 HC2     -0.043200
      8 C8         -2.3650   -2.3900    1.8510 c3        1 HC2     -0.046700
      9 C9         -1.8100   -1.5670    0.6790 c3        1 HC2     -0.048700
     10 C10        -0.2830   -1.3620    0.8050 c3        1 HC2      0.000200
     11 C11        -2.1970   -2.1570   -0.6720 c3        1 HC2     -0.075400
     12 C12        -3.6750   -2.4810   -0.8170 c3        1 HC2     -0.066400
     13 C13        -4.1490   -3.3730    0.3220 c3        1 HC2     -0.038000
     14 C14        -3.8480   -2.5950    1.6290 c3        1 HC2     -0.066700
     15 C15        -4.6560   -3.3240    2.6910 c3        1 HC2     -0.073400
     16 C16        -5.9060   -3.8060    1.9530 c3        1 HC2     -0.077400
     17 C17        -5.6810   -3.5580    0.4470 c3        1 HC2     -0.085700
     18 C18        -3.4560   -4.7220    0.2710 c3        1 HC2     -0.082100
     19 C19         0.4780   -2.6370    0.4500 c3        1 HC2     -0.084100
     20 C20        -6.3920   -4.5910   -0.4480 c3        1 HC2      0.164800
     21 C21        -7.8890   -4.5560   -0.1320 c3        1 HC2     -0.127100
     22 C22        -6.1460   -4.2740   -1.9310 c3        1 HC2     -0.068400
     23 C23        -7.0720   -5.0240   -2.8640 c3        1 HC2     -0.079400
     24 C24        -6.6320   -4.8620   -4.3040 c3        1 HC2     -0.075400
     25 C25        -7.5560   -5.5840   -5.2740 c3        1 HC2     -0.067700
     26 C26        -8.8490   -4.8220   -5.4790 c3        1 HC2     -0.089600
     27 C27        -6.8580   -5.7920   -6.6030 c3        1 HC2     -0.089600
     28 O1          3.1620    1.0060    1.6510 oh        1 HC2     -0.601800
     29 O2         -5.9080   -5.9200   -0.2660 oh        1 HC2     -0.596800
     30 H11        -0.5610    0.6370   -0.0110 hc        1 HC2      0.044200
     31 H12        -0.0200   -0.6000   -1.2180 hc        1 HC2      0.044200
     32 H21         2.2570   -0.6300   -0.2230 hc        1 HC2      0.047200
     33 H22         1.7740    1.0440   -0.7060 hc        1 HC2      0.047200
     34 H3          1.1650    1.5980    1.6440 h1        1 HC2      0.035700
     35 H41         2.2020   -1.2470    2.3310 hc        1 HC2      0.060700
     36 H42         1.5560   -0.0070    3.4730 hc        1 HC2      0.060700
     37 H6         -0.4490   -0.7930    4.2670 ha        1 HC2      0.122000
     38 H71        -2.3130   -2.3590    4.0160 hc        1 HC2      0.048200
     39 H72        -2.8610   -0.8100    3.2650 hc        1 HC2      0.048200
     40 H8         -1.8420   -3.3830    1.8990 hc        1 HC2      0.060700
     41 H9         -2.2860   -0.5460    0.7490 hc        1 HC2      0.046700
     42 H111       -1.6090   -3.0930   -0.8610 hc        1 HC2      0.042200
     43 H112       -1.9200   -1.4230   -1.4760 hc        1 HC2      0.042200
     44 H121       -4.2740   -1.5330   -0.8240 hc        1 HC2      0.040700
     45 H122       -3.8350   -2.9870   -1.8040 hc        1 HC2      0.040700
     46 H14        -4.3070   -1.5670    1.5170 hc        1 HC2      0.044700
     47 H151       -4.0800   -4.1860    3.1090 hc        1 HC2      0.043700
     48 H152       -4.9160   -2.6450    3.5390 hc        1 HC2      0.043700
     49 H161       -6.8090   -3.2450    2.2990 hc        1 HC2      0.037700
     50 H162       -6.0800   -4.8890    2.1680 hc        1 HC2      0.037700
     51 H17        -6.1510   -2.5670    0.1860 hc        1 HC2      0.051700
     52 H181       -2.3470   -4.6170    0.3400 hc        1 HC2      0.039367
     53 H182       -3.8040   -5.3650    1.1150 hc        1 HC2      0.039367
     54 H183       -3.7020   -5.2430   -0.6870 hc        1 HC2      0.039367
     55 H191        0.0210   -3.5220    0.9540 hc        1 HC2      0.038033
     56 H192        1.5440   -2.5600    0.7720 hc        1 HC2      0.038033
     57 H193        0.4630   -2.8060   -0.6540 hc        1 HC2      0.038033
     58 H211       -8.3300   -3.5930   -0.4790 hc        1 HC2      0.043033
     59 H212       -8.0670   -4.6610    0.9650 hc        1 HC2      0.043033
     60 H213       -8.4030   -5.4020   -0.6480 hc        1 HC2      0.043033
     61 H221       -5.0870   -4.5530   -2.1740 hc        1 HC2      0.050700
     62 H222       -6.2620   -3.1700   -2.0820 hc        1 HC2      0.050700
     63 H231       -8.1210   -4.6450   -2.7480 hc        1 HC2      0.046700
     64 H232       -7.0720   -6.1120   -2.5860 hc        1 HC2      0.046700
     65 H241       -5.5910   -5.2690   -4.4170 hc        1 HC2      0.038700
     66 H242       -6.5920   -3.7720   -4.5670 hc        1 HC2      0.038700
     67 H25        -7.8030   -6.5960   -4.8430 hc        1 HC2      0.047700
     68 H261       -9.3860   -4.6920   -4.5090 hc        1 HC2      0.032700
     69 H262       -9.5170   -5.3770   -6.1810 hc        1 HC2      0.032700
     70 H263       -8.6460   -3.8120   -5.9100 hc        1 HC2      0.032700
     71 H271       -6.5570   -4.8110   -7.0440 hc        1 HC2      0.032700
     72 H272       -7.5390   -6.3080   -7.3220 hc        1 HC2      0.032700
     73 H273       -5.9420   -6.4160   -6.4710 hc        1 HC2      0.032700
     74 HO1         3.4030    1.6500    0.9760 ho        1 HC2      0.399000
     75 HO2        -6.0330   -6.1470    0.6620 ho        1 HC2      0.398000
@<TRIPOS>BOND
     1    1    2 1   
     2    1   10 1   
     3    1   30 1   
     4    1   31 1   
     5    2    3 1   
     6    2   32 1   
     7    2   33 1   
     8    3    4 1   
     9    3   28 1   
    10    3   34 1   
    11    4    5 1   
    12    4   35 1   
    13    4   36 1   
    14    5    6 2   
    15    5   10 1   
    16    6    7 1   
    17    6   37 1   
    18    7    8 1   
    19    7   38 1   
    20    7   39 1   
    21    8    9 1   
    22    8   14 1   
    23    8   40 1   
    24    9   10 1   
    25    9   11 1   
    26    9   41 1   
    27   10   19 1   
    28   11   12 1   
    29   11   42 1   
    30   11   43 1   
    31   12   13 1   
    32   12   44 1   
    33   12   45 1   
    34   13   14 1   
    35   13   17 1   
    36   13   18 1   
    37   14   15 1   
    38   14   46 1   
    39   15   16 1   
    40   15   47 1   
    41   15   48 1   
    42   16   17 1   
    43   16   49 1   
    44   16   50 1   
    45   17   20 1   
    46   17   51 1   
    47   18   52 1   
    48   18   53 1   
    49   18   54 1   
    50   19   55 1   
    51   19   56 1   
    52   19   57 1   
    53   20   21 1   
    54   20   22 1   
    55   20   29 1   
    56   21   58 1   
    57   21   59 1   
    58   21   60 1   
    59   22   23 1   
    60   22   61 1   
    61   22   62 1   
    62   23   24 1   
    63   23   63 1   
    64   23   64 1   
    65   24   25 1   
    66   24   65 1   
    67   24   66 1   
    68   25   26 1   
    69   25   27 1   
    70   25   67 1   
    71   26   68 1   
    72   26   69 1   
    73   26   70 1   
    74   27   71 1   
    75   27   72 1   
    76   27   73 1   
    77   28   74 1   
    78   29   75 1   
@<TRIPOS>SUBSTRUCTURE
     1 HC2         1 TEMP              0 ****  ****    0 ROOT
