@<TRIPOS>MOLECULE
HC3
   75    78     1     0     0
SMALL
bcc


@<TRIPOS>ATOM
      1 C18         2.0120    0.1700    0.2410 c3        1 HC3     -0.083100
      2 C13         0.5020    0.0360    0.1430 c3        1 HC3     -0.045000
      3 C12        -0.1220   -0.0590    1.5270 c3        1 HC3     -0.065400
      4 C11         0.3310   -1.3240    2.2370 c3        1 HC3     -0.075400
      5 C9          0.0920   -2.6060    1.4470 c3        1 HC3     -0.048700
      6 C10         0.6600   -3.8480    2.1720 c3        1 HC3      0.000200
      7 C19         2.1160   -3.6330    2.5770 c3        1 HC3     -0.084100
      8 C1         -0.1890   -4.0850    3.4310 c3        1 HC3     -0.066400
      9 C2          0.1220   -5.3920    4.1220 c3        1 HC3     -0.113400
     10 C3         -0.0780   -6.5610    3.1660 c3        1 HC3      0.145100
     11 O1          0.3210   -7.7900    3.7640 oh        1 HC3     -0.602800
     12 C4          0.7870   -6.3910    1.9210 c3        1 HC3     -0.038200
     13 C5          0.5770   -5.0610    1.2790 c2        1 HC3     -0.110400
     14 C6          0.3680   -4.9850   -0.0440 c2        1 HC3     -0.165200
     15 C7          0.1780   -3.7240   -0.7910 c3        1 HC3     -0.043200
     16 C8          0.6190   -2.5060    0.0080 c3        1 HC3     -0.046700
     17 C14         0.0670   -1.2420   -0.6170 c3        1 HC3     -0.064700
     18 C15         0.3950   -0.9390   -2.0710 c3        1 HC3     -0.074400
     19 C16         0.1600    0.5670   -2.2060 c3        1 HC3     -0.079400
     20 C17        -0.0680    1.1350   -0.7880 c3        1 HC3     -0.053700
     21 C20         0.5080    2.5390   -0.6350 c3        1 HC3     -0.055700
     22 C21         0.3050    3.0760    0.7690 c3        1 HC3     -0.090100
     23 C22        -0.1420    3.4890   -1.6400 c3        1 HC3     -0.079400
     24 C23         0.7360    4.6870   -1.9350 c3        1 HC3     -0.079400
     25 C24         0.0470    5.6410   -2.8860 c3        1 HC3     -0.064400
     26 C25         0.9610    6.7730   -3.3640 c3        1 HC3      0.147800
     27 C26         0.1830    7.6970   -4.2980 c3        1 HC3     -0.123100
     28 C27         1.5260    7.5740   -2.1970 c3        1 HC3     -0.123100
     29 O2          2.0240    6.1460   -4.0850 oh        1 HC3     -0.597800
     30 H181        2.4580    0.2670   -0.7780 hc        1 HC3      0.036033
     31 H182        2.4700   -0.7180    0.7410 hc        1 HC3      0.036033
     32 H183        2.2820    1.0760    0.8370 hc        1 HC3      0.036033
     33 H121       -1.2400   -0.0540    1.4330 hc        1 HC3      0.040700
     34 H122        0.1660    0.8280    2.1490 hc        1 HC3      0.040700
     35 H111       -0.2200   -1.3950    3.2130 hc        1 HC3      0.040700
     36 H112        1.4220   -1.2240    2.4790 hc        1 HC3      0.040700
     37 H9         -1.0250   -2.7510    1.3720 hc        1 HC3      0.047700
     38 H191        2.7020   -3.2070    1.7280 hc        1 HC3      0.037367
     39 H192        2.1810   -2.9330    3.4460 hc        1 HC3      0.037367
     40 H193        2.5860   -4.6010    2.8790 hc        1 HC3      0.037367
     41 H11        -0.0170   -3.2440    4.1530 hc        1 HC3      0.043700
     42 H12        -1.2750   -4.0700    3.1460 hc        1 HC3      0.043700
     43 H21         1.1800   -5.3950    4.4930 hc        1 HC3      0.046200
     44 H22        -0.5480   -5.5160    5.0120 hc        1 HC3      0.046200
     45 H3         -1.1640   -6.6320    2.8730 h1        1 HC3      0.035700
     46 HO1        -0.1720   -7.8690    4.5890 ho        1 HC3      0.398000
     47 H41         1.8670   -6.5030    2.2110 hc        1 HC3      0.060200
     48 H42         0.5520   -7.2230    1.2050 hc        1 HC3      0.060200
     49 H6          0.3150   -5.9010   -0.6570 ha        1 HC3      0.121000
     50 H71         0.7560   -3.7590   -1.7540 hc        1 HC3      0.049200
     51 H72        -0.9090   -3.6280   -1.0640 hc        1 HC3      0.049200
     52 H8          1.7420   -2.4750    0.0170 hc        1 HC3      0.058700
     53 H14        -1.0600   -1.3050   -0.5410 hc        1 HC3      0.045700
     54 H151       -0.2590   -1.5210   -2.7640 hc        1 HC3      0.041700
     55 H152        1.4570   -1.2000   -2.3040 hc        1 HC3      0.041700
     56 H161        1.0440    1.0560   -2.6860 hc        1 HC3      0.043200
     57 H162       -0.7330    0.7670   -2.8470 hc        1 HC3      0.043200
     58 H17        -1.1750    1.1990   -0.5990 hc        1 HC3      0.045700
     59 H20         1.6130    2.4980   -0.8510 hc        1 HC3      0.052700
     60 H211        0.4770    4.1790    0.7940 hc        1 HC3      0.033033
     61 H212       -0.7350    2.8740    1.1210 hc        1 HC3      0.033033
     62 H213        1.0200    2.6010    1.4830 hc        1 HC3      0.033033
     63 H221       -0.3480    2.9520   -2.6030 hc        1 HC3      0.040700
     64 H222       -1.1310    3.8330   -1.2380 hc        1 HC3      0.040700
     65 H231        0.9880    5.2220   -0.9810 hc        1 HC3      0.048700
     66 H232        1.7040    4.3480   -2.3920 hc        1 HC3      0.048700
     67 H241       -0.3090    5.0750   -3.7870 hc        1 HC3      0.047200
     68 H242       -0.8470    6.0990   -2.3890 hc        1 HC3      0.047200
     69 H261        0.8470    8.5080   -4.6800 hc        1 HC3      0.042367
     70 H262       -0.2070    7.1180   -5.1680 hc        1 HC3      0.042367
     71 H263       -0.6730    8.1580   -3.7520 hc        1 HC3      0.042367
     72 H271        0.7020    7.8960   -1.5200 hc        1 HC3      0.042367
     73 H272        2.0600    8.4800   -2.5720 hc        1 HC3      0.042367
     74 H273        2.2510    6.9500   -1.6210 hc        1 HC3      0.042367
     75 HO2         2.6040    6.8520   -4.3920 ho        1 HC3      0.397000
@<TRIPOS>BOND
     1    1    2 1   
     2    1   30 1   
     3    1   31 1   
     4    1   32 1   
     5    2    3 1   
     6    2   17 1   
     7    2   20 1   
     8    3    4 1   
     9    3   33 1   
    10    3   34 1   
    11    4    5 1   
    12    4   35 1   
    13    4   36 1   
    14    5    6 1   
    15    5   16 1   
    16    5   37 1   
    17    6    7 1   
    18    6    8 1   
    19    6   13 1   
    20    7   38 1   
    21    7   39 1   
    22    7   40 1   
    23    8    9 1   
    24    8   41 1   
    25    8   42 1   
    26    9   10 1   
    27    9   43 1   
    28    9   44 1   
    29   10   11 1   
    30   10   12 1   
    31   10   45 1   
    32   11   46 1   
    33   12   13 1   
    34   12   47 1   
    35   12   48 1   
    36   13   14 2   
    37   14   15 1   
    38   14   49 1   
    39   15   16 1   
    40   15   50 1   
    41   15   51 1   
    42   16   17 1   
    43   16   52 1   
    44   17   18 1   
    45   17   53 1   
    46   18   19 1   
    47   18   54 1   
    48   18   55 1   
    49   19   20 1   
    50   19   56 1   
    51   19   57 1   
    52   20   21 1   
    53   20   58 1   
    54   21   22 1   
    55   21   23 1   
    56   21   59 1   
    57   22   60 1   
    58   22   61 1   
    59   22   62 1   
    60   23   24 1   
    61   23   63 1   
    62   23   64 1   
    63   24   25 1   
    64   24   65 1   
    65   24   66 1   
    66   25   26 1   
    67   25   67 1   
    68   25   68 1   
    69   26   27 1   
    70   26   28 1   
    71   26   29 1   
    72   27   69 1   
    73   27   70 1   
    74   27   71 1   
    75   28   72 1   
    76   28   73 1   
    77   28   74 1   
    78   29   75 1   
@<TRIPOS>SUBSTRUCTURE
     1 HC3         1 TEMP              0 ****  ****    0 ROOT
