@<TRIPOS>MOLECULE
molecule
   75    78     1     0     0
SMALL
bcc


@<TRIPOS>ATOM
      1 C18          1.5300     0.0000     0.0000 c3         1 HC3      -0.100100
      2 C13          0.0000     0.0000     0.0000 c3         1 HC3      -0.062000
      3 C12         -0.5180     0.0000     1.4390 c3         1 HC3      -0.063400
      4 C11          0.1100    -1.1890     2.1810 c3         1 HC3      -0.079400
      5 C9          -0.1490    -2.5090     1.4590 c3         1 HC3      -0.050700
      6 C10          0.5580    -3.6400     2.1880 c3         1 HC3      -0.014800
      7 C19          1.9240    -3.1020     2.6160 c3         1 HC3      -0.087100
      8 C1          -0.2180    -4.0280     3.4490 c3         1 HC3      -0.066400
      9 C2           0.5180    -5.1600     4.1690 c3         1 HC3      -0.092400
     10 C3           0.5660    -6.3980     3.2710 c3         1 HC3       0.149100
     11 O1           1.1790    -7.4770     3.9790 oh         1 HC3      -0.607800
     12 C4           1.3810    -6.0860     2.0130 c3         1 HC3      -0.050200
     13 C5           0.7800    -4.8610     1.3450 c2         1 HC3      -0.112400
     14 C6           0.4900    -4.9300     0.0780 c2         1 HC3      -0.170200
     15 C7          -0.1140    -3.7880    -0.6850 c3         1 HC3      -0.038200
     16 C8           0.2800    -2.4680    -0.0140 c3         1 HC3      -0.059700
     17 C14         -0.4620    -1.3200    -0.6750 c3         1 HC3      -0.069700
     18 C15         -0.1130    -1.0590    -2.1440 c3         1 HC3      -0.076400
     19 C16         -0.5470     0.4180    -2.3470 c3         1 HC3      -0.081400
     20 C17         -0.5230     1.0770    -0.9440 c3         1 HC3      -0.052700
     21 C20          0.4140     2.2850    -0.9420 c3         1 HC3      -0.070700
     22 C21          0.4760     2.8800     0.4650 c3         1 HC3      -0.094100
     23 C22         -0.1100     3.3400    -1.9190 c3         1 HC3      -0.081400
     24 C23          0.8900     4.4930    -2.0110 c3         1 HC3      -0.083400
     25 C24          0.3660     5.5470    -2.9870 c3         1 HC3      -0.065400
     26 C25          1.3680     6.7010    -3.0780 c3         1 HC3       0.147800
     27 C26          0.7870     7.8110    -3.9570 c3         1 HC3      -0.120600
     28 C27          1.6410     7.2500    -1.6770 c3         1 HC3      -0.120600
     29 O2           2.5880     6.2280    -3.6530 oh         1 HC3      -0.603800
     30 H181         1.8910     0.4540    -0.9150 hc         1 HC3       0.040700
     31 H182         1.8910    -1.0190     0.0640 hc         1 HC3       0.040700
     32 H183         1.8910     0.5650     0.8510 hc         1 HC3       0.040700
     33 H121        -1.5970    -0.1020     1.4370 hc         1 HC3       0.043700
     34 H122        -0.2340     0.9240     1.9270 hc         1 HC3       0.043700
     35 H111        -0.3130    -1.2450     3.1770 hc         1 HC3       0.045700
     36 H112         1.1790    -1.0320     2.2550 hc         1 HC3       0.045700
     37 H9          -1.2140    -2.7040     1.4920 hc         1 HC3       0.047700
     38 H191         2.3690    -2.5520     1.7950 hc         1 HC3       0.037700
     39 H192         1.8030    -2.4440     3.4680 hc         1 HC3       0.037700
     40 H193         2.5690    -3.9290     2.8870 hc         1 HC3       0.037700
     41 H11         -0.2900    -3.1700     4.1070 hc         1 HC3       0.044700
     42 H12         -1.2100    -4.3630     3.1730 hc         1 HC3       0.044700
     43 H21         -0.0040    -5.4020     5.0870 hc         1 HC3       0.052200
     44 H22          1.5290    -4.8430     4.3970 hc         1 HC3       0.052200
     45 H3          -0.4420    -6.6730     2.9860 h1         1 HC3       0.032700
     46 HO1          0.5730    -8.1970     4.0410 ho         1 HC3       0.400000
     47 H41          2.4090    -5.8820     2.2870 hc         1 HC3       0.057200
     48 H42          1.3390    -6.9280     1.3340 hc         1 HC3       0.057200
     49 H6           0.6920    -5.8540    -0.4490 ha         1 HC3       0.120000
     50 H71         -1.1930    -3.8850    -0.6850 hc         1 HC3       0.050200
     51 H72          0.2560    -3.7990    -1.7030 hc         1 HC3       0.050200
     52 H8           1.3490    -2.3140    -0.0880 hc         1 HC3       0.071700
     53 H14         -1.5320    -1.4460    -0.5590 hc         1 HC3       0.055700
     54 H151        -0.6800    -1.7150    -2.7930 hc         1 HC3       0.044700
     55 H152         0.9510    -1.1690    -2.3090 hc         1 HC3       0.044700
     56 H161         0.1500     0.9220    -3.0050 hc         1 HC3       0.044200
     57 H162        -1.5490     0.4570    -2.7570 hc         1 HC3       0.044200
     58 H17         -1.5240     1.3720    -0.6540 hc         1 HC3       0.053700
     59 H20          1.4060     1.9740    -1.2460 hc         1 HC3       0.060700
     60 H211         0.4930     3.9620     0.4000 hc         1 HC3       0.035367
     61 H212        -0.3940     2.5670     1.0290 hc         1 HC3       0.035367
     62 H213         1.3730     2.5350     0.9650 hc         1 HC3       0.035367
     63 H221        -1.0630     3.7160    -1.5660 hc         1 HC3       0.040700
     64 H222        -0.2380     2.8930    -2.8970 hc         1 HC3       0.040700
     65 H231         1.8430     4.1170    -2.3630 hc         1 HC3       0.051700
     66 H232         1.0180     4.9390    -1.0320 hc         1 HC3       0.051700
     67 H241         0.2380     5.1010    -3.9660 hc         1 HC3       0.048700
     68 H242        -0.5870     5.9230    -2.6350 hc         1 HC3       0.048700
     69 H261        -0.1460     8.1590    -3.5310 hc         1 HC3       0.041533
     70 H262         0.6070     7.4260    -4.9540 hc         1 HC3       0.041533
     71 H263         1.4890     8.6350    -4.0100 hc         1 HC3       0.041533
     72 H271         0.7190     7.2660    -1.1080 hc         1 HC3       0.041533
     73 H272         2.3640     6.6170    -1.1750 hc         1 HC3       0.041533
     74 H273         2.0360     8.2570    -1.7540 hc         1 HC3       0.041533
     75 HO2          3.1020     6.9620    -3.9480 ho         1 HC3       0.401000
@<TRIPOS>BOND
     1     1     2 1
     2     1    30 1
     3     1    31 1
     4     1    32 1
     5     2     3 1
     6     2    17 1
     7     2    20 1
     8     3     4 1
     9     3    33 1
    10     3    34 1
    11     4     5 1
    12     4    35 1
    13     4    36 1
    14     5     6 1
    15     5    16 1
    16     5    37 1
    17     6     7 1
    18     6     8 1
    19     6    13 1
    20     7    38 1
    21     7    39 1
    22     7    40 1
    23     8     9 1
    24     8    41 1
    25     8    42 1
    26     9    10 1
    27     9    43 1
    28     9    44 1
    29    10    11 1
    30    10    12 1
    31    10    45 1
    32    11    46 1
    33    12    13 1
    34    12    47 1
    35    12    48 1
    36    13    14 2
    37    14    15 1
    38    14    49 1
    39    15    16 1
    40    15    50 1
    41    15    51 1
    42    16    17 1
    43    16    52 1
    44    17    18 1
    45    17    53 1
    46    18    19 1
    47    18    54 1
    48    18    55 1
    49    19    20 1
    50    19    56 1
    51    19    57 1
    52    20    21 1
    53    20    58 1
    54    21    22 1
    55    21    23 1
    56    21    59 1
    57    22    60 1
    58    22    61 1
    59    22    62 1
    60    23    24 1
    61    23    63 1
    62    23    64 1
    63    24    25 1
    64    24    65 1
    65    24    66 1
    66    25    26 1
    67    25    67 1
    68    25    68 1
    69    26    27 1
    70    26    28 1
    71    26    29 1
    72    27    69 1
    73    27    70 1
    74    27    71 1
    75    28    72 1
    76    28    73 1
    77    28    74 1
    78    29    75 1
@<TRIPOS>SUBSTRUCTURE
     1 HC3         1 TEMP              0 ****  ****    0 ROOT
