@<TRIPOS>MOLECULE
HC4
   19    19     1     0     0
SMALL
bcc


@<TRIPOS>ATOM
      1 C1         -0.8050    0.3700   -0.5590 c         1 HC4      0.895800
      2 O1         -0.1440    1.3740   -0.1690 o         1 HC4     -0.833800
      3 O2         -2.0510    0.2320   -0.3770 o         1 HC4     -0.833800
      4 C2         -0.0390   -0.7500   -1.2210 ce        1 HC4     -0.147200
      5 C3          0.0110   -1.1120   -2.5070 cf        1 HC4     -0.181200
      6 C1'        -0.6960   -0.5400   -3.6390 ca        1 HC4     -0.032800
      7 C2'        -0.1690   -0.7190   -4.9290 ca        1 HC4     -0.101000
      8 C3'        -0.8140   -0.2100   -6.0530 ca        1 HC4     -0.192500
      9 C4'        -2.0140    0.4910   -5.8840 ca        1 HC4      0.084100
     10 C5'        -2.5600    0.6790   -4.6070 ca        1 HC4     -0.192500
     11 C6'        -1.9030    0.1650   -3.4940 ca        1 HC4     -0.101000
     12 O4'        -2.6240    0.9730   -7.0290 oh        1 HC4     -0.521100
     13 H2          0.5790   -1.3080   -0.4940 ha        1 HC4      0.097000
     14 H3          0.6790   -1.9480   -2.7930 ha        1 HC4      0.082000
     15 H2'         0.7760   -1.2680   -5.0570 ha        1 HC4      0.162500
     16 H3'        -0.3990   -0.3480   -7.0590 ha        1 HC4      0.123500
     17 H5'        -3.5000    1.2350   -4.4830 ha        1 HC4      0.123500
     18 H6'        -2.3250    0.3120   -2.4780 ha        1 HC4      0.162500
     19 HO4'       -3.4020    1.4730   -6.7490 ho        1 HC4      0.406000
@<TRIPOS>BOND
     1    1    2 1   
     2    1    3 1   
     3    1    4 1   
     4    4    5 2   
     5    4   13 1   
     6    5    6 1   
     7    5   14 1   
     8    6    7 ar  
     9    6   11 ar  
    10    7    8 ar  
    11    7   15 1   
    12    8    9 ar  
    13    8   16 1   
    14    9   10 ar  
    15    9   12 1   
    16   10   11 ar  
    17   10   17 1   
    18   11   18 1   
    19   12   19 1   
@<TRIPOS>SUBSTRUCTURE
     1 HC4         1 TEMP              0 ****  ****    0 ROOT
