@<TRIPOS>MOLECULE
molecule
   19    19     1     0     0
SMALL
bcc


@<TRIPOS>ATOM
      1 C1           0.0000     0.0000     0.0000 c          1 HC4       0.858800
      2 O1           1.2160     0.0000     0.0000 o          1 HC4      -0.841300
      3 O2          -0.6740     0.0000     1.1690 o          1 HC4      -0.841300
      4 C2          -0.7080    -0.0010    -1.2270 ce         1 HC4      -0.129200
      5 C3          -0.0340    -0.0010    -2.3970 cf         1 HC4      -0.180200
      6 C1'         -0.7680    -0.0010    -3.6690 ca         1 HC4      -0.015800
      7 C2'         -0.0710    -0.0010    -4.8830 ca         1 HC4      -0.130500
      8 C3'         -0.7640    -0.0020    -6.0720 ca         1 HC4      -0.151500
      9 C4'         -2.1540    -0.0020    -6.0700 ca         1 HC4       0.059100
     10 C5'         -2.8510    -0.0020    -4.8680 ca         1 HC4      -0.151500
     11 C6'         -2.1670    -0.0070    -3.6720 ca         1 HC4      -0.130500
     12 O4'         -2.8320    -0.0030    -7.2450 oh         1 HC4      -0.531100
     13 H2          -1.7920    -0.0010    -1.2270 ha         1 HC4       0.104000
     14 H3           1.0490    -0.0000    -2.3980 ha         1 HC4       0.153000
     15 H2'          1.0120    -0.0010    -4.8860 ha         1 HC4       0.139500
     16 H3'         -0.2250    -0.0020    -7.0120 ha         1 HC4       0.123500
     17 H5'         -3.9350    -0.0040    -4.8710 ha         1 HC4       0.123500
     18 H6'         -2.7120    -0.0070    -2.7360 ha         1 HC4       0.139500
     19 HO4'        -2.9900     0.8850    -7.5180 ho         1 HC4       0.403000
@<TRIPOS>BOND
     1     1     2 1
     2     1     3 1
     3     1     4 1
     4     4     5 2
     5     4    13 1
     6     5     6 1
     7     5    14 1
     8     6     7 ar
     9     6    11 ar
    10     7     8 ar
    11     7    15 1
    12     8     9 ar
    13     8    16 1
    14     9    10 ar
    15     9    12 1
    16    10    11 ar
    17    10    17 1
    18    11    18 1
    19    12    19 1
@<TRIPOS>SUBSTRUCTURE
     1 HC4         1 TEMP              0 ****  ****    0 ROOT
