@<TRIPOS>MOLECULE
molecule
   43    42     1     0     0
SMALL
bcc


@<TRIPOS>ATOM
      1 CAC          0.0000     0.0000     0.0000 c3         1 HC5      -0.092100
      2 CAD          1.5300     0.0000     0.0000 c3         1 HC5      -0.082400
      3 CAE          2.0400     0.0000     1.4430 c3         1 HC5      -0.083400
      4 CAF          3.5690    -0.0000     1.4430 c3         1 HC5      -0.073400
      5 CAG          4.0790    -0.0010     2.8850 c3         1 HC5      -0.126400
      6 CAH          5.5870    -0.0000     2.8860 c          1 HC5       0.631100
      7 OAI          6.1910    -0.0000     1.8400 o          1 HC5      -0.551000
      8 OAK          6.2580    -0.0010     4.0490 os         1 HC5      -0.419900
      9 CAP          7.7060    -0.1010     4.0510 c3         1 HC5       0.166100
     10 CAQ          8.2990     1.0560     3.2460 c3         1 HC5      -0.226400
     11 CAR          7.9330     2.3640     3.9010 c          1 HC5       0.891600
     12 OAL          8.2500     3.5240     3.3080 o          1 HC5      -0.818800
     13 OAS          7.3550     2.3660     4.9620 o          1 HC5      -0.818800
     14 CAO          8.1260    -1.4300     3.4180 c3         1 HC5       0.049800
     15 NAN          7.7160    -2.5380     4.2910 n4         1 HC5      -0.572800
     16 CAT          6.2640    -2.4860     4.5000 c3         1 HC5       0.092100
     17 CAJ          8.0750    -3.8160     3.6600 c3         1 HC5       0.092100
     18 CAM          8.4020    -2.4230     5.5850 c3         1 HC5       0.092100
     19 HAC1        -0.3610     0.8830     0.5140 hc         1 HC5       0.033700
     20 HAC2        -0.3610    -0.8860     0.5080 hc         1 HC5       0.033700
     21 HAC3        -0.3610     0.0040    -1.0210 hc         1 HC5       0.033700
     22 HAD1         1.8910     0.8850    -0.5110 hc         1 HC5       0.043700
     23 HAD2         1.8910    -0.8850    -0.5110 hc         1 HC5       0.043700
     24 HAE1         1.6790     0.8850     1.9530 hc         1 HC5       0.041700
     25 HAE2         1.6790    -0.8850     1.9530 hc         1 HC5       0.041700
     26 HAF1         3.9310    -0.8840     0.9310 hc         1 HC5       0.059700
     27 HAF2         3.9300     0.8850     0.9330 hc         1 HC5       0.059700
     28 HAG1         3.7180     0.8830     3.3970 hc         1 HC5       0.073200
     29 HAG2         3.7180    -0.8860     3.3950 hc         1 HC5       0.073200
     30 HAP          8.0700    -0.0550     5.0700 h1         1 HC5       0.104700
     31 HAQ1         7.9030     1.0350     2.2380 hc         1 HC5       0.067700
     32 HAQ2         9.3770     0.9580     3.2130 hc         1 HC5       0.067700
     33 HAO1         7.6500    -1.5360     2.4510 hx         1 HC5       0.111200
     34 HAO2         9.2020    -1.4470     3.2940 hx         1 HC5       0.111200
     35 HAT1         5.9330    -3.4060     4.9660 hx         1 HC5       0.094589
     36 HAT2         6.0220    -1.6480     5.1430 hx         1 HC5       0.094589
     37 HAT3         5.7660    -2.3640     3.5460 hx         1 HC5       0.094589
     38 HAJ1         7.5440    -3.9170     2.7220 hx         1 HC5       0.094589
     39 HAJ2         9.1420    -3.8400     3.4760 hx         1 HC5       0.094589
     40 HAJ3         7.8040    -4.6320     4.3180 hx         1 HC5       0.094589
     41 HAM1         8.3350    -3.3650     6.1140 hx         1 HC5       0.094589
     42 HAM2         9.4440    -2.1740     5.4200 hx         1 HC5       0.094589
     43 HAM3         7.9330    -1.6440     6.1730 hx         1 HC5       0.094589
@<TRIPOS>BOND
     1     1     2 1
     2     1    19 1
     3     1    20 1
     4     1    21 1
     5     2     3 1
     6     2    22 1
     7     2    23 1
     8     3     4 1
     9     3    24 1
    10     3    25 1
    11     4     5 1
    12     4    26 1
    13     4    27 1
    14     5     6 1
    15     5    28 1
    16     5    29 1
    17     6     7 2
    18     6     8 1
    19     8     9 1
    20     9    10 1
    21     9    14 1
    22     9    30 1
    23    10    11 1
    24    10    31 1
    25    10    32 1
    26    11    12 1
    27    11    13 1
    28    14    15 1
    29    14    33 1
    30    14    34 1
    31    15    16 1
    32    15    17 1
    33    15    18 1
    34    16    35 1
    35    16    36 1
    36    16    37 1
    37    17    38 1
    38    17    39 1
    39    17    40 1
    40    18    41 1
    41    18    42 1
    42    18    43 1
@<TRIPOS>SUBSTRUCTURE
     1 HC5         1 TEMP              0 ****  ****    0 ROOT
