@<TRIPOS>MOLECULE
molecule
   64    67     1     0     0
SMALL
bcc


@<TRIPOS>ATOM
      1 CAC          0.0000     0.0000     0.0000 c3         1 HC6       0.106300
      2 NAA          1.4690     0.0000     0.0000 n4         1 HC6      -0.574800
      3 CBA          1.9590    -1.1990    -0.6930 c3         1 HC6       0.091100
      4 CBB          1.9600     1.2000    -0.6920 c3         1 HC6       0.091100
      5 CAB          1.9580     0.0000     1.3850 c3         1 HC6       0.067300
      6 CAF          1.4470    -1.2510     2.1040 c3         1 HC6       0.119400
      7 OAE          0.0180    -1.2740     2.0520 os         1 HC6      -0.405600
      8 CAD         -0.5080    -1.2510     0.7210 c3         1 HC6       0.382900
      9 OBC         -0.0750    -2.4160     0.0170 oh         1 HC6      -0.633300
     10 CAG         -2.0140    -1.2240     0.7760 ca         1 HC6      -0.147800
     11 CAL         -2.7500    -1.7960    -0.2470 ca         1 HC6      -0.090000
     12 CAK         -4.1290    -1.7750    -0.2020 ca         1 HC6      -0.112000
     13 CAH         -2.6540    -0.6330     1.8490 ca         1 HC6      -0.090000
     14 CAI         -4.0330    -0.6060     1.9040 ca         1 HC6      -0.112000
     15 CAJ         -4.7790    -1.1760     0.8750 cp         1 HC6      -0.015000
     16 CAM         -6.2630    -1.1500     0.9280 cp         1 HC6      -0.015000
     17 CAR         -6.9130    -0.5510     2.0050 ca         1 HC6      -0.112000
     18 CAQ         -8.2920    -0.5300     2.0500 ca         1 HC6      -0.090000
     19 CAN         -7.0090    -1.7190    -0.1020 ca         1 HC6      -0.112000
     20 CAO         -8.3880    -1.6930    -0.0460 ca         1 HC6      -0.090000
     21 CAP         -9.0280    -1.1020     1.0280 ca         1 HC6      -0.147800
     22 CAS        -10.5350    -1.0760     1.0820 c3         1 HC6       0.382900
     23 OBD        -10.9630    -1.0900     2.4450 oh         1 HC6      -0.633300
     24 CAX        -11.0480     0.1940     0.3980 c3         1 HC6       0.106300
     25 OAT        -11.0570    -2.2210     0.4040 os         1 HC6      -0.405600
     26 CAU        -12.4860    -2.2610     0.3600 c3         1 HC6       0.119400
     27 CAV        -13.0040    -0.9930    -0.3260 c3         1 HC6       0.067300
     28 NAW        -12.5180     0.1870     0.4000 n4         1 HC6      -0.574800
     29 CAZ        -13.0050     0.1450     1.7860 c3         1 HC6       0.091100
     30 CAY        -13.0140     1.4050    -0.2550 c3         1 HC6       0.091100
     31 HAC         -0.3600     0.8830     0.5140 hx         1 HC6       0.115700
     32 HACA        -0.3600    -0.0020    -1.0220 hx         1 HC6       0.115700
     33 HBA          1.8880    -2.0530    -0.0300 hx         1 HC6       0.102867
     34 HBAA         2.9930    -1.0520    -0.9820 hx         1 HC6       0.102867
     35 HBAB         1.3590    -1.3770    -1.5760 hx         1 HC6       0.102867
     36 HBB          1.5800     2.0840    -0.1950 hx         1 HC6       0.102867
     37 HBBA         3.0430     1.2110    -0.6710 hx         1 HC6       0.102867
     38 HBBB         1.6180     1.1890    -1.7200 hx         1 HC6       0.102867
     39 HAB          3.0420    -0.0030     1.3850 hx         1 HC6       0.110700
     40 HABA         1.5940     0.8830     1.8960 hx         1 HC6       0.110700
     41 HAF          1.7690    -1.2300     3.1390 h1         1 HC6       0.096700
     42 HAFA         1.8400    -2.1340     1.6160 h1         1 HC6       0.096700
     43 HAL         -2.2430    -2.2610    -1.0830 ha         1 HC6       0.151500
     44 HAK         -4.7050    -2.2210    -1.0030 ha         1 HC6       0.151000
     45 HAH         -2.0720    -0.1900     2.6480 ha         1 HC6       0.151500
     46 HAI         -4.5340    -0.1410     2.7450 ha         1 HC6       0.151000
     47 HAR         -6.3370    -0.1030     2.8060 ha         1 HC6       0.151000
     48 HAQ         -8.7990    -0.0670     2.8880 ha         1 HC6       0.151500
     49 HAN         -6.5080    -2.1820    -0.9430 ha         1 HC6       0.151000
     50 HAO         -8.9700    -2.1370    -0.8450 ha         1 HC6       0.151500
     51 HAX        -10.6900     0.2220    -0.6240 hx         1 HC6       0.115700
     52 HAXA       -10.6910     1.0630     0.9360 hx         1 HC6       0.115700
     53 HAU        -12.8770    -2.3110     1.3690 h1         1 HC6       0.096700
     54 HAUA       -12.8060    -3.1300    -0.2020 h1         1 HC6       0.096700
     55 HAV        -14.0870    -0.9990    -0.3210 hx         1 HC6       0.110700
     56 HAVA       -12.6420    -0.9630    -1.3470 hx         1 HC6       0.110700
     57 HAZ        -12.9280    -0.8670     2.1650 hx         1 HC6       0.102867
     58 HAZA       -12.4050     0.8070     2.4000 hx         1 HC6       0.102867
     59 HAZB       -14.0390     0.4650     1.8150 hx         1 HC6       0.102867
     60 HAY        -12.6370     1.4490    -1.2700 hx         1 HC6       0.102867
     61 HAYA       -14.0970     1.3900    -0.2730 hx         1 HC6       0.102867
     62 HAYB       -12.6750     2.2750     0.2940 hx         1 HC6       0.102867
     63 H33         -0.4230    -3.1850     0.4380 ho         1 HC6       0.454000
     64 H34        -10.6130    -1.8510     2.8770 ho         1 HC6       0.454000
@<TRIPOS>BOND
     1     1     2 1
     2     1     8 1
     3     1    31 1
     4     1    32 1
     5     2     3 1
     6     2     4 1
     7     2     5 1
     8     3    33 1
     9     3    34 1
    10     3    35 1
    11     4    36 1
    12     4    37 1
    13     4    38 1
    14     5     6 1
    15     5    39 1
    16     5    40 1
    17     6     7 1
    18     6    41 1
    19     6    42 1
    20     7     8 1
    21     8     9 1
    22     8    10 1
    23    10    11 ar
    24    10    13 ar
    25    11    12 ar
    26    11    43 1
    27    12    15 ar
    28    12    44 1
    29    13    14 ar
    30    13    45 1
    31    14    15 ar
    32    14    46 1
    33    15    16 1
    34    16    17 ar
    35    16    19 ar
    36    17    18 ar
    37    17    47 1
    38    18    21 ar
    39    18    48 1
    40    19    20 ar
    41    19    49 1
    42    20    21 ar
    43    20    50 1
    44    21    22 1
    45    23    22 1
    46    22    24 1
    47    22    25 1
    48    24    28 1
    49    24    51 1
    50    24    52 1
    51    25    26 1
    52    26    27 1
    53    26    53 1
    54    26    54 1
    55    27    28 1
    56    27    55 1
    57    27    56 1
    58    28    29 1
    59    28    30 1
    60    29    57 1
    61    29    58 1
    62    29    59 1
    63    30    60 1
    64    30    61 1
    65    30    62 1
    66     9    63 1
    67    23    64 1
@<TRIPOS>SUBSTRUCTURE
     1 HC6         1 TEMP              0 ****  ****    0 ROOT
