@<TRIPOS>MOLECULE
molecule
   67    69     1     0     0
SMALL
bcc


@<TRIPOS>ATOM
      1 CAW          0.0000     0.0000     0.0000 c3         1 HC7       0.098800
      2 NBG          1.4690     0.0000     0.0000 n4         1 HC7      -0.572800
      3 CAC          1.9590    -1.1990    -0.6920 c3         1 HC7       0.085100
      4 CAD          1.9590     1.2000    -0.6920 c3         1 HC7       0.085100
      5 CAT          1.9580     0.0000     1.3860 c3         1 HC7       0.063800
      6 CAR          1.4480    -1.2520     2.1040 c3         1 HC7       0.120400
      7 OAX          0.0180    -1.2750     2.0510 os         1 HC7      -0.407600
      8 CBE         -0.5070    -1.2520     0.7210 c3         1 HC7       0.388900
      9 OAG         -0.0750    -2.4170     0.0170 oh         1 HC7      -0.638800
     10 CBD         -2.0130    -1.2250     0.7760 ca         1 HC7      -0.177300
     11 CAQ         -2.7490    -1.7980    -0.2470 ca         1 HC7      -0.095500
     12 CAO         -4.1290    -1.7770    -0.2020 ca         1 HC7      -0.121500
     13 CAP         -2.6540    -0.6350     1.8510 ca         1 HC7      -0.095500
     14 CAN         -4.0320    -0.6080     1.9050 ca         1 HC7      -0.121500
     15 CBC         -4.7800    -1.1770     0.8750 cp         1 HC7      -0.009000
     16 CBB         -6.2610    -1.1530     0.9300 cp         1 HC7      -0.032000
     17 CAM         -7.0050    -1.7340    -0.0980 ca         1 HC7      -0.126500
     18 CAK         -8.3760    -1.7110    -0.0510 ca         1 HC7      -0.074000
     19 CAL         -6.9090    -0.5520     2.0100 ca         1 HC7      -0.126500
     20 CAJ         -8.2790    -0.5270     2.0610 ca         1 HC7      -0.074000
     21 CBA         -9.0280    -1.1050     1.0300 ca         1 HC7      -0.185600
     22 CAZ        -10.4970    -1.0790     1.0830 c          1 HC7       0.553700
     23 OAE        -11.1440    -1.5840     0.1900 o          1 HC7      -0.509100
     24 CAV        -11.1970    -0.4260     2.2460 c3         1 HC7       0.008800
     25 NBF        -12.6480    -0.6110     2.1100 n4         1 HC7      -0.551800
     26 CAA        -13.1100     0.0290     0.8710 c3         1 HC7       0.100600
     27 CAB        -12.9560    -2.0470     2.0630 c3         1 HC7       0.100600
     28 CAU        -13.3290    -0.0010     3.2590 c3         1 HC7       0.088800
     29 CAS        -14.8350    -0.2440     3.1470 c3         1 HC7       0.193400
     30 OAY        -15.1090    -1.6340     3.3240 os         1 HC7      -0.584200
     31 PBH        -16.5950    -2.2510     3.2680 p5         1 HC7       1.133900
     32 OAH        -17.4620    -1.6720     4.4960 o          1 HC7      -0.781833
     33 OAI        -17.2380    -1.8730     1.9890 o          1 HC7      -0.781833
     34 OAF        -16.5170    -3.8550     3.3750 o          1 HC7      -0.781833
     35 H1AW        -0.3600    -0.0020    -1.0220 hx         1 HC7       0.109200
     36 H2AW        -0.3600     0.8830     0.5140 hx         1 HC7       0.109200
     37 H1AC         1.8930    -2.0520    -0.0280 hx         1 HC7       0.092367
     38 H2AC         2.9910    -1.0500    -0.9870 hx         1 HC7       0.092367
     39 H3AC         1.3550    -1.3800    -1.5730 hx         1 HC7       0.092367
     40 H1AD         3.0420     1.2120    -0.6710 hx         1 HC7       0.092367
     41 H2AD         1.6180     1.1880    -1.7200 hx         1 HC7       0.092367
     42 H3AD         1.5790     2.0840    -0.1950 hx         1 HC7       0.092367
     43 H1AT         1.5930     0.8830     1.8960 hx         1 HC7       0.098700
     44 H2AT         3.0410    -0.0010     1.3850 hx         1 HC7       0.098700
     45 H1AR         1.7700    -1.2300     3.1380 h1         1 HC7       0.086200
     46 H2AR         1.8410    -2.1350     1.6150 h1         1 HC7       0.086200
     47 HOAG        -0.4350    -3.1850     0.4280 ho         1 HC7       0.449000
     48 HAQ         -2.2420    -2.2630    -1.0830 ha         1 HC7       0.139500
     49 HAO         -4.7050    -2.2230    -1.0030 ha         1 HC7       0.147500
     50 HAP         -2.0720    -0.1920     2.6500 ha         1 HC7       0.139500
     51 HAN         -4.5320    -0.1430     2.7460 ha         1 HC7       0.147500
     52 HAM         -6.5000    -2.2030    -0.9340 ha         1 HC7       0.137500
     53 HAK         -8.9530    -2.1610    -0.8500 ha         1 HC7       0.146000
     54 HAL         -6.3290    -0.1050     2.8090 ha         1 HC7       0.137500
     55 HAJ         -8.7810    -0.0590     2.8990 ha         1 HC7       0.146000
     56 H1AV       -10.8600    -0.8790     3.1710 hx         1 HC7       0.103700
     57 H2AV       -10.9670     0.6330     2.2570 hx         1 HC7       0.103700
     58 H1AA       -13.7330     0.8810     1.1150 hx         1 HC7       0.102700
     59 H2AA       -12.2540     0.3610     0.2950 hx         1 HC7       0.102700
     60 H3AA       -13.6830    -0.6820     0.2880 hx         1 HC7       0.102700
     61 H1AB       -12.1700    -2.5670     1.5300 hx         1 HC7       0.102700
     62 H2AB       -13.8990    -2.1970     1.5520 hx         1 HC7       0.102700
     63 H3AB       -13.0260    -2.4340     3.0720 hx         1 HC7       0.102700
     64 H1AU       -13.1340     1.0650     3.2700 hx         1 HC7       0.077200
     65 H2AU       -12.9590    -0.4440     4.1760 hx         1 HC7       0.077200
     66 H1AS       -15.1800     0.0710     2.1690 h1         1 HC7       0.057700
     67 H2AS       -15.3500     0.3260     3.9110 h1         1 HC7       0.057700
@<TRIPOS>BOND
     1     1     8 1
     2     1    35 1
     3     1    36 1
     4     2     5 1
     5     2     1 1
     6     3     2 1
     7     3    37 1
     8     3    38 1
     9     3    39 1
    10     4     2 1
    11     4    40 1
    12     4    41 1
    13     4    42 1
    14     5     6 1
    15     5    43 1
    16     5    44 1
    17     6     7 1
    18     6    45 1
    19     6    46 1
    20     8     7 1
    21     8    10 1
    22     9     8 1
    23     9    47 1
    24    10    11 ar
    25    10    13 ar
    26    11    12 ar
    27    11    48 1
    28    12    15 ar
    29    12    49 1
    30    13    14 ar
    31    13    50 1
    32    14    15 ar
    33    14    51 1
    34    15    16 1
    35    16    19 ar
    36    16    17 ar
    37    17    18 ar
    38    17    52 1
    39    18    21 ar
    40    18    53 1
    41    19    20 ar
    42    19    54 1
    43    20    21 ar
    44    20    55 1
    45    21    22 1
    46    22    23 2
    47    22    24 1
    48    24    25 1
    49    24    56 1
    50    24    57 1
    51    25    26 1
    52    25    28 1
    53    26    58 1
    54    26    59 1
    55    26    60 1
    56    27    25 1
    57    27    61 1
    58    27    62 1
    59    27    63 1
    60    28    29 1
    61    28    64 1
    62    28    65 1
    63    29    66 1
    64    29    67 1
    65    30    31 1
    66    30    29 1
    67    31    34 1
    68    31    32 1
    69    33    31 1
@<TRIPOS>SUBSTRUCTURE
     1 HC7         1 TEMP              0 ****  ****    0 ROOT
