@<TRIPOS>MOLECULE
molecule
   37    38     1     0     0
SMALL
bcc


@<TRIPOS>ATOM
      1 O21          0.0000     0.0000     0.0000 o          1 HC8      -0.513100
      2 C19          1.2140     0.0000     0.0000 c          1 HC8       0.583700
      3 C20          1.9680     0.0000     1.3040 c3         1 HC8      -0.188100
      4 C18          1.9450    -0.0060    -1.2680 ca         1 HC8      -0.206600
      5 C5           2.2660    -1.2330    -1.8870 ca         1 HC8      -0.010300
      6 C4           1.8530    -2.5270    -1.2340 c3         1 HC8      -0.144100
      7 C2           0.4450    -2.8700    -1.6470 c          1 HC8       0.557100
      8 O3          -0.1600    -2.1400    -2.3960 o          1 HC8      -0.496100
      9 C1          -0.2080    -4.1250    -1.1290 c3         1 HC8      -0.192100
     10 C16          2.3160     1.2030    -1.8630 ca         1 HC8       0.188100
     11 O17          2.0030     2.3810    -1.2730 oh         1 HC8      -0.512100
     12 C15          3.0190     1.1830    -3.0820 ca         1 HC8      -0.112000
     13 C7           3.3370    -0.0600    -3.6830 ca         1 HC8       0.049000
     14 C6           2.9420    -1.2620    -3.0590 ca         1 HC8      -0.133000
     15 C13          3.4090     2.3820    -3.7120 ca         1 HC8       0.192100
     16 O14          3.1110     3.5790    -3.1460 oh         1 HC8      -0.491100
     17 C12          4.0960     2.3340    -4.9050 ca         1 HC8      -0.297000
     18 C9           4.4080     1.1080    -5.4950 ca         1 HC8       0.181100
     19 C8           4.0370    -0.0790    -4.8980 ca         1 HC8      -0.195000
     20 O10          5.0860     1.0830    -6.6710 os         1 HC8      -0.324900
     21 C11          5.4430     2.3450    -7.2410 c3         1 HC8       0.127700
     22 H20          1.8110     0.9440     1.8120 hc         1 HC8       0.062367
     23 H20A         3.0250    -0.1350     1.1110 hc         1 HC8       0.062367
     24 H20B         1.6090    -0.8090     1.9290 hc         1 HC8       0.062367
     25 H4           1.8970    -2.4190    -0.1570 hc         1 HC8       0.071700
     26 H4A          2.5240    -3.3180    -1.5460 hc         1 HC8       0.071700
     27 H1          -0.2110    -4.1100    -0.0460 hc         1 HC8       0.061033
     28 H1A          0.3450    -4.9900    -1.4760 hc         1 HC8       0.061033
     29 H1B         -1.2270    -4.1790    -1.4930 hc         1 HC8       0.061033
     30 HO17         1.1190     2.6200    -1.4980 ho         1 HC8       0.439000
     31 H6           3.1800    -2.2130    -3.5210 ha         1 HC8       0.139000
     32 HO14         3.8610     4.1480    -3.2010 ho         1 HC8       0.426000
     33 H12          4.3960     3.2550    -5.3890 ha         1 HC8       0.141000
     34 H8           4.2860    -1.0240    -5.3660 ha         1 HC8       0.151000
     35 H11          4.5460     2.9200    -7.4360 h1         1 HC8       0.043033
     36 H11A         6.0760     2.8870    -6.5500 h1         1 HC8       0.043033
     37 H11B         5.9770     2.1830    -8.1700 h1         1 HC8       0.043033
@<TRIPOS>BOND
     1     1     2 2
     2     2     3 1
     3     2     4 1
     4     4     5 ar
     5     4    10 ar
     6     5     6 1
     7     5    14 ar
     8     6     7 1
     9     7     8 2
    10     7     9 1
    11    10    11 1
    12    10    12 ar
    13    12    13 ar
    14    12    15 ar
    15    13    14 ar
    16    13    19 ar
    17    15    16 1
    18    15    17 ar
    19    17    18 ar
    20    18    19 ar
    21    18    20 1
    22    20    21 1
    23     3    22 1
    24     3    23 1
    25     3    24 1
    26     6    25 1
    27     6    26 1
    28     9    27 1
    29     9    28 1
    30     9    29 1
    31    11    30 1
    32    14    31 1
    33    16    32 1
    34    17    33 1
    35    19    34 1
    36    21    35 1
    37    21    36 1
    38    21    37 1
@<TRIPOS>SUBSTRUCTURE
     1 HC8         1 TEMP              0 ****  ****    0 ROOT
