@<TRIPOS>MOLECULE
HC8
   37    38     1     0     0
SMALL
bcc


@<TRIPOS>ATOM
      1 O21         0.2070   -0.7970    0.3850 o         1 HC8     -0.542100
      2 C19         1.3470   -0.3370    0.2500 c         1 HC8      0.605700
      3 C20         2.1470    0.1590    1.4110 c3        1 HC8     -0.198100
      4 C18         2.0110   -0.2540   -1.0750 ca        1 HC8     -0.220600
      5 C5          2.3130   -1.4340   -1.8050 ca        1 HC8      0.001700
      6 C4          2.0100   -2.7840   -1.2480 c3        1 HC8     -0.152100
      7 C2          0.9700   -3.4990   -2.0830 c         1 HC8      0.579100
      8 O3          1.2840   -4.1320   -3.0960 o         1 HC8     -0.538100
      9 C1         -0.4320   -3.4030   -1.5850 c3        1 HC8     -0.207100
     10 C16         2.3310    0.9890   -1.6180 ca        1 HC8      0.204100
     11 O17         2.0220    2.0780   -0.8390 oh        1 HC8     -0.511100
     12 C15         2.9750    1.1060   -2.8890 ca        1 HC8     -0.138000
     13 C7          3.2490   -0.0880   -3.6120 ca        1 HC8      0.058000
     14 C6          2.9080   -1.3430   -3.0440 ca        1 HC8     -0.163000
     15 C13         3.3780    2.3380   -3.4910 ca        1 HC8      0.182100
     16 O14         3.1480    3.4880   -2.7690 oh        1 HC8     -0.519100
     17 C12         3.9850    2.3920   -4.7340 ca        1 HC8     -0.289000
     18 C9          4.2190    1.1850   -5.4360 ca        1 HC8      0.173100
     19 C8          3.8640   -0.0360   -4.8870 ca        1 HC8     -0.194000
     20 O10         4.8090    1.1300   -6.6810 os        1 HC8     -0.318900
     21 C11         5.1740    2.3730   -7.2700 c3        1 HC8      0.112700
     22 H20         1.6030   -0.0180    2.3700 hc        1 HC8      0.070367
     23 H20A        3.1330   -0.3640    1.4440 hc        1 HC8      0.070367
     24 H20B        2.3290    1.2560    1.2890 hc        1 HC8      0.070367
     25 H4          1.6430   -2.7140   -0.1900 hc        1 HC8      0.077200
     26 H4A         2.9540   -3.3960   -1.2460 hc        1 HC8      0.077200
     27 H1         -1.1590   -3.6510   -2.3950 hc        1 HC8      0.074033
     28 H1A        -0.5710   -4.1270   -0.7440 hc        1 HC8      0.074033
     29 H1B        -0.6380   -2.3720   -1.2000 hc        1 HC8      0.074033
     30 HO17        1.8430    2.8420   -1.4050 ho        1 HC8      0.448000
     31 H6          3.1160   -2.2610   -3.6210 ha        1 HC8      0.161000
     32 HO14        3.4670    4.2450   -3.2820 ho        1 HC8      0.435000
     33 H12         4.2830    3.3570   -5.1640 ha        1 HC8      0.143000
     34 H8          4.0560   -0.9690   -5.4370 ha        1 HC8      0.162000
     35 H11         5.9380    2.8970   -6.6450 h1        1 HC8      0.046700
     36 H11A        5.6110    2.0720   -8.2560 h1        1 HC8      0.046700
     37 H11B        4.2760    3.0200   -7.4180 h1        1 HC8      0.046700
@<TRIPOS>BOND
     1    1    2 2   
     2    2    3 1   
     3    2    4 1   
     4    3   22 1   
     5    3   23 1   
     6    3   24 1   
     7    4    5 ar  
     8    4   10 ar  
     9    5    6 1   
    10    5   14 ar  
    11    6    7 1   
    12    6   25 1   
    13    6   26 1   
    14    7    8 2   
    15    7    9 1   
    16    9   27 1   
    17    9   28 1   
    18    9   29 1   
    19   10   11 1   
    20   10   12 ar  
    21   11   30 1   
    22   12   13 ar  
    23   12   15 ar  
    24   13   14 ar  
    25   13   19 ar  
    26   14   31 1   
    27   15   16 1   
    28   15   17 ar  
    29   16   32 1   
    30   17   18 ar  
    31   17   33 1   
    32   18   19 ar  
    33   18   20 1   
    34   19   34 1   
    35   20   21 1   
    36   21   35 1   
    37   21   36 1   
    38   21   37 1   
@<TRIPOS>SUBSTRUCTURE
     1 HC8         1 TEMP              0 ****  ****    0 ROOT
