@<TRIPOS>MOLECULE
HC9
   75    78     1     0     0
SMALL
bcc


@<TRIPOS>ATOM
      1 C1          0.0170   -0.0180   -0.0300 c3        1 HC9     -0.066400
      2 O1          3.2110    0.8890    1.7240 oh        1 HC9     -0.602800
      3 C2          1.4610    0.4080    0.1050 c3        1 HC9     -0.113400
      4 O2         -8.2420   -4.4430    1.0650 oh        1 HC9     -0.598800
      5 C3          1.8250    0.6000    1.5710 c3        1 HC9      0.145100
      6 C4          1.5650   -0.6780    2.3620 c3        1 HC9     -0.038200
      7 C5          0.1750   -1.1790    2.1610 c2        1 HC9     -0.111400
      8 C6         -0.5680   -1.5290    3.2210 c2        1 HC9     -0.164200
      9 C7         -1.9430   -2.0650    3.1420 c3        1 HC9     -0.043200
     10 C8         -2.2990   -2.5400    1.7400 c3        1 HC9     -0.047700
     11 C9         -1.8410   -1.5050    0.7040 c3        1 HC9     -0.048700
     12 C10        -0.3070   -1.3100    0.7370 c3        1 HC9      0.000200
     13 C11        -2.3440   -1.8380   -0.6960 c3        1 HC9     -0.075400
     14 C12        -3.8350   -2.1260   -0.7700 c3        1 HC9     -0.065400
     15 C13        -4.2270   -3.2190    0.2110 c3        1 HC9     -0.047000
     16 C14        -3.7970   -2.7160    1.6140 c3        1 HC9     -0.064700
     17 C15        -4.5060   -3.6580    2.5750 c3        1 HC9     -0.077400
     18 C16        -5.8220   -3.9930    1.8730 c3        1 HC9     -0.067400
     19 C17        -5.7480   -3.4320    0.4360 c3        1 HC9     -0.042700
     20 C18        -3.5660   -4.5370   -0.1530 c3        1 HC9     -0.083100
     21 C19         0.4130   -2.4830    0.0780 c3        1 HC9     -0.084100
     22 C20        -6.4710   -4.3110   -0.5790 c3        1 HC9     -0.047700
     23 C21        -6.2740   -3.7860   -1.9920 c3        1 HC9     -0.098100
     24 C22        -7.9920   -4.3910   -0.3330 c3        1 HC9      0.143100
     25 C23        -8.5880   -5.6280   -1.0100 c3        1 HC9     -0.122400
     26 C24       -10.0670   -5.4540   -1.2840 c3        1 HC9     -0.077400
     27 C25       -10.6960   -6.7060   -1.8780 c3        1 HC9     -0.067700
     28 C26       -12.2050   -6.6400   -1.7510 c3        1 HC9     -0.090600
     29 C27       -10.3030   -6.8870   -3.3290 c3        1 HC9     -0.090600
     30 H1         -0.6440    0.8060    0.3490 hc        1 HC9      0.043700
     31 H1A        -0.2160   -0.1680   -1.1160 hc        1 HC9      0.043700
     32 HO1         3.3960    1.6560    1.1710 ho        1 HC9      0.398000
     33 H2          2.1390   -0.3630   -0.3460 hc        1 HC9      0.046200
     34 H2A         1.6230    1.3670   -0.4520 hc        1 HC9      0.046200
     35 H3          1.2240    1.4490    2.0050 h1        1 HC9      0.035700
     36 H4          1.7640   -0.4750    3.4470 hc        1 HC9      0.059700
     37 H4A         2.3000   -1.4640    2.0350 hc        1 HC9      0.059700
     38 H6         -0.1730   -1.4150    4.2450 ha        1 HC9      0.121000
     39 H7         -2.0630   -2.9200    3.8600 hc        1 HC9      0.049700
     40 H7A        -2.6620   -1.2620    3.4660 hc        1 HC9      0.049700
     41 H8         -1.7780   -3.5180    1.5550 hc        1 HC9      0.057700
     42 H9         -2.3050   -0.5210    1.0040 hc        1 HC9      0.047700
     43 H11        -2.1190   -0.9730   -1.3750 hc        1 HC9      0.039700
     44 H11A       -1.7910   -2.7280   -1.0970 hc        1 HC9      0.039700
     45 H12        -4.0860   -2.4280   -1.8200 hc        1 HC9      0.040200
     46 H12A       -4.4150   -1.1940   -0.5410 hc        1 HC9      0.040200
     47 H14        -4.2600   -1.6930    1.7530 hc        1 HC9      0.045700
     48 H15        -3.8980   -4.5790    2.7530 hc        1 HC9      0.039700
     49 H15A       -4.6800   -3.1700    3.5650 hc        1 HC9      0.039700
     50 H16        -5.9900   -5.0980    1.8510 hc        1 HC9      0.052700
     51 H16A       -6.6860   -3.5330    2.4150 hc        1 HC9      0.052700
     52 H17        -6.2430   -2.4220    0.4200 hc        1 HC9      0.046700
     53 H18        -2.4530   -4.4590   -0.1120 hc        1 HC9      0.035033
     54 H18A       -3.8490   -4.8450   -1.1880 hc        1 HC9      0.035033
     55 H18B       -3.8870   -5.3390    0.5560 hc        1 HC9      0.035033
     56 H19         1.5050   -2.4530    0.3110 hc        1 HC9      0.037033
     57 H19A        0.2960   -2.4410   -1.0320 hc        1 HC9      0.037033
     58 H19B        0.0010   -3.4530    0.4450 hc        1 HC9      0.037033
     59 H20        -6.0560   -5.3540   -0.5050 hc        1 HC9      0.056700
     60 H21        -5.2630   -4.0620   -2.3780 hc        1 HC9      0.036367
     61 H21A       -7.0320   -4.2130   -2.6930 hc        1 HC9      0.036367
     62 H21B       -6.3710   -2.6730   -2.0120 hc        1 HC9      0.036367
     63 H22        -8.4750   -3.4580   -0.7460 h1        1 HC9      0.031700
     64 H23        -8.0510   -5.8330   -1.9720 hc        1 HC9      0.055200
     65 H23A       -8.4250   -6.5150   -0.3420 hc        1 HC9      0.055200
     66 H24       -10.2230   -4.5910   -1.9830 hc        1 HC9      0.037700
     67 H24A      -10.5940   -5.2020   -0.3240 hc        1 HC9      0.037700
     68 H25       -10.3300   -7.5990   -1.2960 hc        1 HC9      0.048700
     69 H26       -12.6030   -5.7430   -2.2830 hc        1 HC9      0.034033
     70 H26A      -12.6710   -7.5520   -2.1970 hc        1 HC9      0.034033
     71 H26B      -12.5050   -6.5780   -0.6780 hc        1 HC9      0.034033
     72 H27        -9.1940   -6.9780   -3.4280 hc        1 HC9      0.034033
     73 H27A      -10.7710   -7.8130   -3.7430 hc        1 HC9      0.034033
     74 H27B      -10.6430   -6.0170   -3.9400 hc        1 HC9      0.034033
     75 HO2        -9.1940   -4.5670    1.1700 ho        1 HC9      0.397000
@<TRIPOS>BOND
     1    1    3 1   
     2    1   12 1   
     3    1   30 1   
     4    1   31 1   
     5    2    5 1   
     6    2   32 1   
     7    3    5 1   
     8    3   33 1   
     9    3   34 1   
    10    4   24 1   
    11    4   75 1   
    12    5    6 1   
    13    5   35 1   
    14    6    7 1   
    15    6   36 1   
    16    6   37 1   
    17    7    8 2   
    18    7   12 1   
    19    8    9 1   
    20    8   38 1   
    21    9   10 1   
    22    9   39 1   
    23    9   40 1   
    24   10   11 1   
    25   10   16 1   
    26   10   41 1   
    27   11   12 1   
    28   11   13 1   
    29   11   42 1   
    30   12   21 1   
    31   13   14 1   
    32   13   43 1   
    33   13   44 1   
    34   14   15 1   
    35   14   45 1   
    36   14   46 1   
    37   15   16 1   
    38   15   19 1   
    39   15   20 1   
    40   16   17 1   
    41   16   47 1   
    42   17   18 1   
    43   17   48 1   
    44   17   49 1   
    45   18   19 1   
    46   18   50 1   
    47   18   51 1   
    48   19   22 1   
    49   19   52 1   
    50   20   53 1   
    51   20   54 1   
    52   20   55 1   
    53   21   56 1   
    54   21   57 1   
    55   21   58 1   
    56   22   23 1   
    57   22   24 1   
    58   22   59 1   
    59   23   60 1   
    60   23   61 1   
    61   23   62 1   
    62   24   25 1   
    63   24   63 1   
    64   25   26 1   
    65   25   64 1   
    66   25   65 1   
    67   26   27 1   
    68   26   66 1   
    69   26   67 1   
    70   27   28 1   
    71   27   29 1   
    72   27   68 1   
    73   28   69 1   
    74   28   70 1   
    75   28   71 1   
    76   29   72 1   
    77   29   73 1   
    78   29   74 1   
@<TRIPOS>SUBSTRUCTURE
     1 HC9         1 TEMP              0 ****  ****    0 ROOT
