@<TRIPOS>MOLECULE
HCA
   21    20     1     0     0
SMALL
bcc


@<TRIPOS>ATOM
      1 C1          0.1650    0.5800   -0.2630 c         1 HCA      0.912600
      2 C2          1.4320   -0.1950    0.0940 c3        1 HCA     -0.184400
      3 C3          1.9820   -0.1690    1.5330 c3        1 HCA      0.066800
      4 C4          3.5230   -0.1360    1.4750 c3        1 HCA     -0.033400
      5 C5          4.2080    0.0880    2.8030 c3        1 HCA     -0.161400
      6 C6          5.7200    0.2940    2.7260 c         1 HCA      0.897600
      7 C7          1.4940   -1.4350    2.2950 c         1 HCA      0.902600
      8 O1         -0.6080    1.0940    0.6000 o         1 HCA     -0.899800
      9 O2         -0.1090    0.6870   -1.5090 o         1 HCA     -0.899800
     10 O3          6.3240    0.4410    1.6180 o         1 HCA     -0.904800
     11 O4          6.3770    0.3360    3.8210 o         1 HCA     -0.904800
     12 O5          0.7870   -1.2920    3.3390 o         1 HCA     -0.884300
     13 O6          1.7980   -2.5880    1.8540 o         1 HCA     -0.884300
     14 O7          1.5690    1.0080    2.2160 oh        1 HCA     -0.629800
     15 H21         2.2260    0.1810   -0.6050 hc        1 HCA      0.026700
     16 H22         1.2410   -1.2680   -0.1740 hc        1 HCA      0.026700
     17 H41         3.8450    0.6790    0.7750 hc        1 HCA      0.027200
     18 H42         3.8560   -1.1140    1.0410 hc        1 HCA      0.027200
     19 H51         4.0050   -0.7820    3.4790 hc        1 HCA      0.035700
     20 H52         3.7680    0.9950    3.2950 hc        1 HCA      0.035700
     21 HO7         0.6120    0.9080    2.3350 ho        1 HCA      0.427000
@<TRIPOS>BOND
     1    1    2 1   
     2    1    8 1   
     3    1    9 1   
     4    2    3 1   
     5    2   15 1   
     6    2   16 1   
     7    3    4 1   
     8    3    7 1   
     9    3   14 1   
    10    4    5 1   
    11    4   17 1   
    12    4   18 1   
    13    5    6 1   
    14    5   19 1   
    15    5   20 1   
    16    6   10 1   
    17    6   11 1   
    18    7   12 1   
    19    7   13 1   
    20   14   21 1   
@<TRIPOS>SUBSTRUCTURE
     1 HCA         1 TEMP              0 ****  ****    0 ROOT
