@<TRIPOS>MOLECULE
molecule
   21    20     1     0     0
SMALL
bcc


@<TRIPOS>ATOM
      1 C1           0.0000     0.0000     0.0000 c          1 HCA       0.892600
      2 C2           1.5080     0.0000     0.0000 c3         1 HCA      -0.186400
      3 C3           2.0170     0.0000     1.4420 c3         1 HCA       0.061800
      4 C4           3.5470     0.0000     1.4430 c3         1 HCA      -0.070400
      5 C5           4.0570     0.0020     2.8840 c3         1 HCA      -0.168400
      6 C6           5.5630     0.0010     2.8860 c          1 HCA       0.894600
      7 C7           1.5150    -1.2290     2.1530 c          1 HCA       0.949600
      8 O1          -0.6030    -0.0000     1.0450 o          1 HCA      -0.875300
      9 O2          -0.6700    -0.0010    -1.1620 o          1 HCA      -0.875300
     10 O3           6.1670     0.0010     1.8400 o          1 HCA      -0.906300
     11 O4           6.2340     0.0020     4.0470 o          1 HCA      -0.906300
     12 O5           0.8210    -1.1180     3.1340 o          1 HCA      -0.871800
     13 O6           1.8400    -2.4480     1.6960 o          1 HCA      -0.871800
     14 O7           1.5420     1.1670     2.1150 oh         1 HCA      -0.574800
     15 H21          1.8690    -0.8850    -0.5110 hc         1 HCA       0.016700
     16 H22          1.8690     0.8850    -0.5110 hc         1 HCA       0.016700
     17 H41          3.9080     0.8850     0.9320 hc         1 HCA       0.023200
     18 H42          3.9080    -0.8840     0.9330 hc         1 HCA       0.023200
     19 H51          3.6950    -0.8820     3.3960 hc         1 HCA       0.046200
     20 H52          3.6960     0.8870     3.3940 hc         1 HCA       0.046200
     21 HO7          1.7310     1.9290     1.5930 ho         1 HCA       0.336000
@<TRIPOS>BOND
     1     1     2 1
     2     1     8 1
     3     1     9 1
     4     2     3 1
     5     2    15 1
     6     2    16 1
     7     3     4 1
     8     3     7 1
     9     3    14 1
    10     4     5 1
    11     4    17 1
    12     4    18 1
    13     5     6 1
    14     5    19 1
    15     5    20 1
    16     6    10 1
    17     6    11 1
    18     7    12 1
    19     7    13 1
    20    14    21 1
@<TRIPOS>SUBSTRUCTURE
     1 HCA         1 TEMP              0 ****  ****    0 ROOT
