@<TRIPOS>MOLECULE
HCC
   31    32     1     0     0
SMALL
bcc


@<TRIPOS>ATOM
      1 C1          1.0950   -0.0080   -0.0010 ca        1 HCC      0.188100
      2 C2          2.1140    0.9520    0.1450 ca        1 HCC     -0.201000
      3 C3          2.5470    1.2780    1.4210 ca        1 HCC     -0.025000
      4 C4          2.0090    0.6670    2.5660 ca        1 HCC     -0.235600
      5 C5          0.9810   -0.2790    2.3960 ca        1 HCC      0.209100
      6 C6          0.5180   -0.6230    1.1150 ca        1 HCC     -0.318000
      7 C7          2.5520    1.0680    3.8840 c         1 HCC      0.595900
      8 C8          2.5770    0.0340    4.9340 ce        1 HCC     -0.225200
      9 C9          3.6440   -0.6230    5.4000 cf        1 HCC     -0.061200
     10 O10         0.4260   -0.8440    3.5170 oh        1 HCC     -0.493100
     11 C11         5.0300   -0.5060    4.9810 ca        1 HCC     -0.099800
     12 C12         6.0420   -0.8390    5.9010 ca        1 HCC     -0.075500
     13 C13         7.3830   -0.7590    5.5530 ca        1 HCC     -0.186500
     14 C14         7.7280   -0.3480    4.2540 ca        1 HCC      0.132100
     15 C15         6.7360   -0.0200    3.3200 ca        1 HCC     -0.186500
     16 C16         5.3960   -0.1010    3.6910 ca        1 HCC     -0.075500
     17 O17         2.9520    2.2230    4.0790 o         1 HCC     -0.526100
     18 O18         9.0710   -0.2940    3.9630 oh        1 HCC     -0.496100
     19 O19         0.7050   -0.2950   -1.2840 oh        1 HCC     -0.488100
     20 H2          2.5430    1.4280   -0.7470 ha        1 HCC      0.159000
     21 H3          3.3320    2.0430    1.5580 ha        1 HCC      0.158000
     22 H6         -0.2850   -1.3620    0.9950 ha        1 HCC      0.139000
     23 H8          1.5730   -0.1790    5.3470 ha        1 HCC      0.159000
     24 H9          3.4850   -1.3560    6.2150 ha        1 HCC      0.126000
     25 H10        -0.2770   -1.4500    3.2370 ho        1 HCC      0.425000
     26 H12         5.7660   -1.1610    6.9170 ha        1 HCC      0.136000
     27 H13         8.1760   -1.0100    6.2710 ha        1 HCC      0.143000
     28 H15         7.0120    0.3000    2.3060 ha        1 HCC      0.143000
     29 H16         4.6170    0.1600    2.9560 ha        1 HCC      0.136000
     30 H18         9.1670    0.0230    3.0530 ho        1 HCC      0.420000
     31 H19         0.0000   -0.9590   -1.2480 ho        1 HCC      0.424000
@<TRIPOS>BOND
     1    1    2 ar  
     2    1    6 ar  
     3    1   19 1   
     4    2    3 ar  
     5    2   20 1   
     6    3    4 ar  
     7    3   21 1   
     8    4    5 ar  
     9    4    7 1   
    10    5    6 ar  
    11    5   10 1   
    12    6   22 1   
    13    7    8 1   
    14    7   17 2   
    15    8    9 2   
    16    8   23 1   
    17    9   11 1   
    18    9   24 1   
    19   10   25 1   
    20   11   12 ar  
    21   11   16 ar  
    22   12   13 ar  
    23   12   26 1   
    24   13   14 ar  
    25   13   27 1   
    26   14   15 ar  
    27   14   18 1   
    28   15   16 ar  
    29   15   28 1   
    30   16   29 1   
    31   18   30 1   
    32   19   31 1   
@<TRIPOS>SUBSTRUCTURE
     1 HCC         1 TEMP              0 ****  ****    0 ROOT
