@<TRIPOS>MOLECULE
molecule
   31    32     1     0     0
SMALL
bcc


@<TRIPOS>ATOM
      1 C1           0.0000     0.0000     0.0000 ca         1 HCC       0.164100
      2 C2           1.3910     0.0000     0.0000 ca         1 HCC      -0.196000
      3 C3           2.0850     0.0000     1.1880 ca         1 HCC      -0.052000
      4 C4           1.3900     0.0000     2.4010 ca         1 HCC      -0.201600
      5 C5          -0.0130    -0.0060     2.3990 ca         1 HCC       0.195100
      6 C6          -0.6990    -0.0010     1.1970 ca         1 HCC      -0.249000
      7 C7           2.1290     0.0000     3.6770 c          1 HCC       0.577900
      8 C8           3.5910    -0.0010     3.6750 ce         1 HCC      -0.268200
      9 C9           4.2670    -0.0010     4.8440 cf         1 HCC      -0.023200
     10 O10         -0.6950    -0.0060     3.5730 oh         1 HCC      -0.470100
     11 C11          5.7370    -0.0010     4.8420 ca         1 HCC      -0.090800
     12 C12          6.4410    -0.0010     6.0520 ca         1 HCC      -0.094000
     13 C13          7.8180    -0.0020     6.0440 ca         1 HCC      -0.156500
     14 C14          8.5080    -0.0020     4.8390 ca         1 HCC       0.118100
     15 C15          7.8130     0.0040     3.6340 ca         1 HCC      -0.156500
     16 C16          6.4370    -0.0010     3.6300 ca         1 HCC      -0.094000
     17 O17          1.5220    -0.0000     4.7330 o          1 HCC      -0.516100
     18 O18          9.8650    -0.0030     4.8370 oh         1 HCC      -0.521100
     19 O19         -0.6760    -0.0010    -1.1770 oh         1 HCC      -0.522100
     20 H2           1.9310     0.0000    -0.9390 ha         1 HCC       0.145000
     21 H3           3.1680     0.0020     1.1830 ha         1 HCC       0.141000
     22 H6          -1.7830    -0.0030     1.1920 ha         1 HCC       0.148000
     23 H8           4.1310    -0.0010     2.7360 ha         1 HCC       0.132000
     24 H9           3.7270    -0.0000     5.7830 ha         1 HCC       0.156000
     25 H10         -1.4520    -0.5630     3.4960 ho         1 HCC       0.423000
     26 H12          5.9040    -0.0010     6.9920 ha         1 HCC       0.138000
     27 H13          8.3630    -0.0040     6.9800 ha         1 HCC       0.143500
     28 H15          8.3570     0.0040     2.6970 ha         1 HCC       0.143500
     29 H16          5.8970     0.0040     2.6910 ha         1 HCC       0.138000
     30 H18         10.1800     0.8850     4.8750 ho         1 HCC       0.422000
     31 H19         -0.8500     0.8880    -1.4410 ho         1 HCC       0.427000
@<TRIPOS>BOND
     1     1     2 ar
     2     1     6 ar
     3     1    19 1
     4     2     3 ar
     5     2    20 1
     6     3     4 ar
     7     3    21 1
     8     4     5 ar
     9     4     7 1
    10     5     6 ar
    11     5    10 1
    12     6    22 1
    13     7     8 1
    14     7    17 2
    15     8     9 2
    16     8    23 1
    17     9    11 1
    18     9    24 1
    19    10    25 1
    20    11    12 ar
    21    11    16 ar
    22    12    13 ar
    23    12    26 1
    24    13    14 ar
    25    13    27 1
    26    14    15 ar
    27    14    18 1
    28    15    16 ar
    29    15    28 1
    30    16    29 1
    31    18    30 1
    32    19    31 1
@<TRIPOS>SUBSTRUCTURE
     1 HCC         1 TEMP              0 ****  ****    0 ROOT
