@<TRIPOS>MOLECULE
HCD
   75    78     1     0     0
SMALL
bcc


@<TRIPOS>ATOM
      1 C1         -0.0650    0.1200    0.0360 c3        1 HCD     -0.066400
      2 O1          3.0000    1.2160    1.9070 oh        1 HCD     -0.602800
      3 C2          1.3400    0.6430    0.2240 c3        1 HCD     -0.113400
      4 O2         -5.7120   -5.8970   -0.7010 oh        1 HCD     -0.593800
      5 C3          1.6440    0.8330    1.7040 c3        1 HCD      0.145100
      6 C4          1.4510   -0.4750    2.4650 c3        1 HCD     -0.038200
      7 C5          0.1070   -1.0700    2.2110 c2        1 HCD     -0.110400
      8 C6         -0.6410   -1.4920    3.2410 c2        1 HCD     -0.165200
      9 C7         -1.9700   -2.1240    3.1080 c3        1 HCD     -0.043200
     10 C8         -2.2480   -2.5950    1.6880 c3        1 HCD     -0.046700
     11 C9         -1.8350   -1.5080    0.6850 c3        1 HCD     -0.048700
     12 C10        -0.3200   -1.2060    0.7700 c3        1 HCD      0.000200
     13 C11        -2.2700   -1.8440   -0.7370 c3        1 HCD     -0.074400
     14 C12        -3.7320   -2.2410   -0.8660 c3        1 HCD     -0.066400
     15 C13        -4.0670   -3.3810    0.0840 c3        1 HCD     -0.040000
     16 C14        -3.7260   -2.8730    1.5090 c3        1 HCD     -0.064700
     17 C15        -4.4010   -3.8770    2.4320 c3        1 HCD     -0.072400
     18 C16        -5.6610   -4.3020    1.6750 c3        1 HCD     -0.077400
     19 C17        -5.5720   -3.7050    0.2550 c3        1 HCD     -0.043700
     20 C18        -3.2960   -4.6360   -0.2850 c3        1 HCD     -0.077100
     21 C19         0.5010   -2.3140    0.1150 c3        1 HCD     -0.084100
     22 C20        -6.2690   -4.5880   -0.7940 c3        1 HCD      0.164800
     23 C21        -6.0730   -4.0310   -2.2030 c3        1 HCD     -0.128100
     24 C22        -7.7760   -4.6240   -0.4720 c3        1 HCD     -0.110400
     25 C23        -8.5230   -5.7430   -1.1650 c3        1 HCD     -0.083400
     26 C24       -10.0130   -5.6280   -0.9180 c3        1 HCD     -0.074400
     27 C25       -10.7990   -6.7420   -1.5940 c3        1 HCD     -0.067700
     28 C26       -10.6590   -8.0510   -0.8460 c3        1 HCD     -0.090100
     29 C27       -12.2610   -6.3570   -1.7010 c3        1 HCD     -0.090100
     30 H1         -0.7950    0.8870    0.4070 hc        1 HCD      0.043200
     31 H1A        -0.2540   -0.0260   -1.0600 hc        1 HCD      0.043200
     32 HO1         3.1480    2.0040    1.3710 ho        1 HCD      0.398000
     33 H2          1.4510    1.6220   -0.3110 hc        1 HCD      0.046700
     34 H2A         2.0840   -0.0700   -0.2170 hc        1 HCD      0.046700
     35 HO2        -6.0880   -6.4110   -1.4260 ho        1 HCD      0.398000
     36 H3          0.9710    1.6290    2.1320 h1        1 HCD      0.035700
     37 H4          2.2500   -1.2000    2.1490 hc        1 HCD      0.059700
     38 H4A         1.6010   -0.2790    3.5590 hc        1 HCD      0.059700
     39 H6         -0.2850   -1.3720    4.2780 ha        1 HCD      0.121000
     40 H7         -2.7540   -1.3810    3.4240 hc        1 HCD      0.049200
     41 H7A        -2.0490   -3.0010    3.8060 hc        1 HCD      0.049200
     42 H8         -1.6550   -3.5300    1.5000 hc        1 HCD      0.060700
     43 H9         -2.3760   -0.5660    0.9890 hc        1 HCD      0.046700
     44 H11        -2.0920   -0.9470   -1.3890 hc        1 HCD      0.041200
     45 H11A       -1.6390   -2.6790   -1.1410 hc        1 HCD      0.041200
     46 H12        -4.3880   -1.3600   -0.6410 hc        1 HCD      0.038700
     47 H12A       -3.9290   -2.5460   -1.9260 hc        1 HCD      0.038700
     48 H14        -4.2630   -1.8870    1.6480 hc        1 HCD      0.042700
     49 H15        -3.7340   -4.7550    2.6210 hc        1 HCD      0.042200
     50 H15A       -4.6490   -3.4180    3.4190 hc        1 HCD      0.042200
     51 H16        -6.5760   -3.9250    2.1940 hc        1 HCD      0.049700
     52 H16A       -5.7260   -5.4180    1.6190 hc        1 HCD      0.049700
     53 H17        -6.1270   -2.7250    0.2380 hc        1 HCD      0.044700
     54 H18        -3.5760   -5.4730    0.4010 hc        1 HCD      0.039033
     55 H18A       -2.1940   -4.4740   -0.2240 hc        1 HCD      0.039033
     56 H18B       -3.5480   -4.9480   -1.3270 hc        1 HCD      0.039033
     57 H19         1.5800   -2.2130    0.3860 hc        1 HCD      0.037700
     58 H19A        0.1450   -3.3170    0.4490 hc        1 HCD      0.037700
     59 H19B        0.4180   -2.2560   -0.9970 hc        1 HCD      0.037700
     60 H21        -6.2330   -2.9270   -2.2020 hc        1 HCD      0.044033
     61 H21A       -6.7960   -4.4960   -2.9140 hc        1 HCD      0.044033
     62 H21B       -5.0400   -4.2490   -2.5660 hc        1 HCD      0.044033
     63 H22        -7.9110   -4.7430    0.6350 hc        1 HCD      0.050200
     64 H22A       -8.2170   -3.6360   -0.7640 hc        1 HCD      0.050200
     65 H23        -8.3260   -5.7210   -2.2690 hc        1 HCD      0.041200
     66 H23A       -8.1550   -6.7320   -0.7800 hc        1 HCD      0.041200
     67 H24       -10.2150   -5.6450    0.1850 hc        1 HCD      0.041700
     68 H24A      -10.3730   -4.6370   -1.3060 hc        1 HCD      0.041700
     69 H25       -10.3930   -6.8830   -2.6360 hc        1 HCD      0.044700
     70 H26       -11.0540   -7.9520    0.1950 hc        1 HCD      0.033533
     71 H26A       -9.5880   -8.3600   -0.7890 hc        1 HCD      0.033533
     72 H26B      -11.2320   -8.8560   -1.3650 hc        1 HCD      0.033533
     73 H27       -12.6900   -6.1680   -0.6880 hc        1 HCD      0.033533
     74 H27A      -12.8430   -7.1780   -2.1840 hc        1 HCD      0.033533
     75 H27B      -12.3780   -5.4310   -2.3140 hc        1 HCD      0.033533
@<TRIPOS>BOND
     1    1    3 1   
     2    1   12 1   
     3    1   30 1   
     4    1   31 1   
     5    2    5 1   
     6    2   32 1   
     7    3    5 1   
     8    3   33 1   
     9    3   34 1   
    10    4   22 1   
    11    4   35 1   
    12    5    6 1   
    13    5   36 1   
    14    6    7 1   
    15    6   37 1   
    16    6   38 1   
    17    7    8 2   
    18    7   12 1   
    19    8    9 1   
    20    8   39 1   
    21    9   10 1   
    22    9   40 1   
    23    9   41 1   
    24   10   11 1   
    25   10   16 1   
    26   10   42 1   
    27   11   12 1   
    28   11   13 1   
    29   11   43 1   
    30   12   21 1   
    31   13   14 1   
    32   13   44 1   
    33   13   45 1   
    34   14   15 1   
    35   14   46 1   
    36   14   47 1   
    37   15   16 1   
    38   15   19 1   
    39   15   20 1   
    40   16   17 1   
    41   16   48 1   
    42   17   18 1   
    43   17   49 1   
    44   17   50 1   
    45   18   19 1   
    46   18   51 1   
    47   18   52 1   
    48   19   22 1   
    49   19   53 1   
    50   20   54 1   
    51   20   55 1   
    52   20   56 1   
    53   21   57 1   
    54   21   58 1   
    55   21   59 1   
    56   22   23 1   
    57   22   24 1   
    58   23   60 1   
    59   23   61 1   
    60   23   62 1   
    61   24   25 1   
    62   24   63 1   
    63   24   64 1   
    64   25   26 1   
    65   25   65 1   
    66   25   66 1   
    67   26   27 1   
    68   26   67 1   
    69   26   68 1   
    70   27   28 1   
    71   27   29 1   
    72   27   69 1   
    73   28   70 1   
    74   28   71 1   
    75   28   72 1   
    76   29   73 1   
    77   29   74 1   
    78   29   75 1   
@<TRIPOS>SUBSTRUCTURE
     1 HCD         1 TEMP              0 ****  ****    0 ROOT
