@<TRIPOS>MOLECULE
HCE
   50    52     1     0     0
SMALL
bcc


@<TRIPOS>ATOM
      1 O            0.0000     0.0000     0.0000 o          1 HCE      -0.814800
      2 C            1.2080     0.0000     0.0000 c          1 HCE       0.956600
      3 OXT          1.8800     0.0060    -1.1630 o          1 HCE      -0.814800
      4 CA           1.9620     0.0000     1.3050 c3         1 HCE      -0.204500
      5 N            1.0800     0.4730     2.3800 nz         1 HCE       0.080400
      6 CB           2.4340    -1.4210     1.6210 c3         1 HCE      -0.000400
      7 CG           3.3040    -1.4010     2.8790 c3         1 HCE       0.050700
      8 S5'          3.8630    -3.0860     3.2540 ss         1 HCE      -0.361200
      9 C5'          4.8630    -2.8600     4.7510 c3         1 HCE       0.089700
     10 C4'          5.4160    -4.2130     5.2030 c3         1 HCE      -0.050700
     11 C1'          6.4260    -4.7530     4.1670 c3         1 HCE       0.147800
     12 C3'          6.2280    -4.0510     6.5060 c3         1 HCE       0.190100
     13 O3'          5.6850    -4.8830     7.5340 oh         1 HCE      -0.562800
     14 C2'          7.6580    -4.5070     6.1460 c3         1 HCE       0.117800
     15 N1'          7.4820    -5.4100     4.9790 n3         1 HCE      -0.513600
     16 C10          8.7320    -5.5340     4.2160 c3         1 HCE       0.251000
     17 C9           9.6950    -6.4140     4.9700 cc         1 HCE      -0.260000
     18 C8          10.7240    -6.0040     5.7360 cd         1 HCE      -0.266100
     19 N7          11.3720    -7.0840     6.2590 na         1 HCE       0.394600
     20 C5          10.7640    -8.2420     5.8360 ca         1 HCE      -0.475800
     21 C4           9.6840    -7.8730     5.0160 ca         1 HCE       0.419100
     22 N3           8.9230    -8.8270     4.4730 nb         1 HCE      -0.559000
     23 C2           9.1800   -10.0960     4.7030 ca         1 HCE       0.594900
     24 N1          10.1850   -10.4860     5.4680 nb         1 HCE      -0.626000
     25 C6          10.9920    -9.6060     6.0520 ca         1 HCE       0.533200
     26 N6          12.0420   -10.0300     6.8510 nv         1 HCE      -0.658500
     27 H2           2.8210     0.6560     1.2270 hx         1 HCE       0.086700
     28 H3           1.6340     0.7710     3.1590 hn         1 HCE       0.211467
     29 H4           0.5320     1.2420     2.0480 hn         1 HCE       0.211467
     30 H6           3.0120    -1.8040     0.7880 hc         1 HCE       0.068200
     31 H7           1.5740    -2.0580     1.7870 hc         1 HCE       0.068200
     32 H8           4.1640    -0.7640     2.7130 h1         1 HCE       0.019700
     33 H9           2.7260    -1.0180     3.7120 h1         1 HCE       0.019700
     34 H10          4.2460    -2.4410     5.5370 h1         1 HCE       0.031200
     35 H11          5.6840    -2.1860     4.5380 h1         1 HCE       0.031200
     36 H12          4.6130    -4.9250     5.3490 hc         1 HCE       0.072700
     37 H13          5.9470    -5.4750     3.5170 h1         1 HCE       0.026700
     38 H14          6.8460    -3.9370     3.5910 h1         1 HCE       0.026700
     39 H15          6.2330    -3.0140     6.8170 h1         1 HCE      -0.004300
     40 H16          5.6340    -4.3950     8.3390 ho         1 HCE       0.382000
     41 H17          8.2670    -3.6540     5.8740 h1         1 HCE       0.020700
     42 H18          8.1000    -5.0460     6.9760 h1         1 HCE       0.020700
     43 H20          9.1710    -4.5530     4.0790 h1         1 HCE       0.013700
     44 H21          8.5220    -5.9740     3.2490 h1         1 HCE       0.013700
     45 H22         10.9970    -4.9700     5.9090 h4         1 HCE       0.141000
     46 H23         12.1700    -7.0390     6.8610 hn         1 HCE       0.115700
     47 H24          8.5480   -10.8480     4.2470 h5         1 HCE      -0.000900
     48 H25         12.9350   -10.2220     6.4430 hn         1 HCE       0.276800
     49 H26         11.8960   -10.1810     7.8300 hn         1 HCE       0.276800
     50 HN3          0.4740    -0.2700     2.6660 hn         1 HCE       0.211467
@<TRIPOS>BOND
     1     1     2 1   
     2     2     3 1   
     3     2     4 1   
     4     4     5 1   
     5     4     6 1   
     6     4    27 1   
     7     5    28 1   
     8     5    29 1   
     9     5    50 1   
    10     6     7 1   
    11     6    30 1   
    12     6    31 1   
    13     7     8 1   
    14     7    32 1   
    15     7    33 1   
    16     8     9 1   
    17     9    10 1   
    18     9    34 1   
    19     9    35 1   
    20    10    11 1   
    21    10    12 1   
    22    10    36 1   
    23    11    15 1   
    24    11    37 1   
    25    11    38 1   
    26    12    13 1   
    27    12    14 1   
    28    12    39 1   
    29    13    40 1   
    30    14    15 1   
    31    14    41 1   
    32    14    42 1   
    33    15    16 1   
    34    16    17 1   
    35    16    43 1   
    36    16    44 1   
    37    17    18 2   
    38    17    21 1   
    39    18    19 1   
    40    18    45 1   
    41    19    20 1   
    42    19    46 1   
    43    20    21 ar  
    44    20    25 ar  
    45    21    22 ar  
    46    22    23 ar  
    47    23    24 ar  
    48    23    47 1   
    49    24    25 ar  
    50    25    26 1   
    51    26    48 1   
    52    26    49 1   
@<TRIPOS>SUBSTRUCTURE
     1 HCE         1 TEMP              0 ****  ****    0 ROOT
