@<TRIPOS>MOLECULE
molecule
   50    52     1     0     0
SMALL
bcc


@<TRIPOS>ATOM
      1 O            0.0000     0.0000     0.0000 o          1 HCE      -0.771800
      2 C            1.2080     0.0000     0.0000 c          1 HCE       0.869600
      3 OXT          1.8800     0.0060    -1.1630 o          1 HCE      -0.771800
      4 CA           1.9620     0.0000     1.3050 c3         1 HCE      -0.017500
      5 N            1.0800     0.4730     2.3800 nz         1 HCE      -0.791600
      6 CB           2.4340    -1.4210     1.6210 c3         1 HCE      -0.073400
      7 CG           3.3040    -1.4010     2.8790 c3         1 HCE      -0.018300
      8 S5'          3.8630    -3.0860     3.2540 ss         1 HCE      -0.303200
      9 C5'          4.8630    -2.8600     4.7510 c3         1 HCE       0.011700
     10 C4'          5.4160    -4.2130     5.2030 c3         1 HCE      -0.068700
     11 C1'          6.4260    -4.7530     4.1670 c3         1 HCE       0.146800
     12 C3'          6.2280    -4.0510     6.5060 c3         1 HCE       0.148100
     13 O3'          5.6850    -4.8830     7.5340 oh         1 HCE      -0.582800
     14 C2'          7.6580    -4.5070     6.1460 c3         1 HCE       0.122800
     15 N1'          7.4820    -5.4100     4.9790 n3         1 HCE      -0.670600
     16 C10          8.7320    -5.5340     4.2160 c3         1 HCE       0.232000
     17 C9           9.6950    -6.4140     4.9700 cc         1 HCE      -0.259000
     18 C8          10.7240    -6.0040     5.7360 cd         1 HCE      -0.087100
     19 N7          11.3720    -7.0840     6.2590 na         1 HCE      -0.162400
     20 C5          10.7640    -8.2420     5.8360 ca         1 HCE      -0.295800
     21 C4           9.6840    -7.8730     5.0160 ca         1 HCE       0.471100
     22 N3           8.9230    -8.8270     4.4730 nb         1 HCE      -0.693000
     23 C2           9.1800   -10.0960     4.7030 ca         1 HCE       0.660900
     24 N1          10.1850   -10.4860     5.4680 nb         1 HCE      -0.746000
     25 C6          10.9920    -9.6060     6.0520 ca         1 HCE       0.706200
     26 N6          12.0420   -10.0300     6.8510 nv         1 HCE      -1.084500
     27 H2           2.8210     0.6560     1.2270 hx         1 HCE       0.103700
     28 H3           1.6340     0.7710     3.1590 hn         1 HCE       0.439133
     29 H4           0.5320     1.2420     2.0480 hn         1 HCE       0.439133
     30 H6           3.0120    -1.8040     0.7880 hc         1 HCE       0.099200
     31 H7           1.5740    -2.0580     1.7870 hc         1 HCE       0.099200
     32 H8           4.1640    -0.7640     2.7130 h1         1 HCE       0.041200
     33 H9           2.7260    -1.0180     3.7120 h1         1 HCE       0.041200
     34 H10          4.2460    -2.4410     5.5370 h1         1 HCE       0.054200
     35 H11          5.6840    -2.1860     4.5380 h1         1 HCE       0.054200
     36 H12          4.6130    -4.9250     5.3490 hc         1 HCE       0.099700
     37 H13          5.9470    -5.4750     3.5170 h1         1 HCE       0.053200
     38 H14          6.8460    -3.9370     3.5910 h1         1 HCE       0.053200
     39 H15          6.2330    -3.0140     6.8170 h1         1 HCE       0.027700
     40 H16          5.6340    -4.3950     8.3390 ho         1 HCE       0.396000
     41 H17          8.2670    -3.6540     5.8740 h1         1 HCE       0.047200
     42 H18          8.1000    -5.0460     6.9760 h1         1 HCE       0.047200
     43 H20          9.1710    -4.5530     4.0790 h1         1 HCE       0.045200
     44 H21          8.5220    -5.9740     3.2490 h1         1 HCE       0.045200
     45 H22         10.9970    -4.9700     5.9090 h4         1 HCE       0.168000
     46 H23         12.1700    -7.0390     6.8610 hn         1 HCE       0.302700
     47 H24          8.5480   -10.8480     4.2470 h5         1 HCE       0.060100
     48 H25         12.9350   -10.2220     6.4430 hn         1 HCE       0.437300
     49 H26         11.8960   -10.1810     7.8300 hn         1 HCE       0.437300
     50 HN3          0.4740    -0.2700     2.6660 hn         1 HCE       0.439133
@<TRIPOS>BOND
     1     1     2 1
     2     3     2 1
     3     2     4 1
     4     6     4 1
     5     6     7 1
     6     4     5 1
     7     8     7 1
     8     8     9 1
     9    23    24 ar
    10    23    22 ar
    11    24    25 ar
    12     9    10 1
    13    12    14 1
    14    12    10 1
    15    12    13 1
    16    22    21 ar
    17    25    26 1
    18    25    20 ar
    19    14    15 1
    20    10    11 1
    21    21    20 ar
    22    21    17 1
    23    20    19 1
    24    11    15 1
    25    15    16 1
    26    17    16 1
    27    17    18 2
    28    19    18 1
    29     4    27 1
    30     5    28 1
    31     5    29 1
    32     6    30 1
    33     6    31 1
    34     7    32 1
    35     7    33 1
    36     9    34 1
    37     9    35 1
    38    10    36 1
    39    11    37 1
    40    11    38 1
    41    12    39 1
    42    13    40 1
    43    14    41 1
    44    14    42 1
    45    16    43 1
    46    16    44 1
    47    18    45 1
    48    19    46 1
    49    23    47 1
    50    26    48 1
    51    26    49 1
    52    50     5 1
@<TRIPOS>SUBSTRUCTURE
     1 HCE         1 TEMP              0 ****  ****    0 ROOT
