@<TRIPOS>MOLECULE
molecule
   39    38     1     0     0
SMALL
bcc


@<TRIPOS>ATOM
      1 C1           0.0000     0.0000     0.0000 c          1 HCG       0.868600
      2 C2           1.5150     0.0000     0.0000 c3         1 HCG      -0.007500
      3 C3           2.0950     0.0000     1.4220 c3         1 HCG      -0.082400
      4 C4           1.6470     1.1810     2.2930 c3         1 HCG      -0.073400
      5 C7           2.2230     1.0770     3.7030 c3         1 HCG      -0.161400
      6 C10          1.7630     2.2080     4.6040 c          1 HCG       0.671100
      7 N11          2.2960     2.0970     5.8800 ns         1 HCG      -0.565900
      8 C12          2.0040     3.0550     6.9190 c3         1 HCG       0.049700
      9 C13          3.2420     3.2270     7.7950 c          1 HCG       0.674100
     10 N14          1.9730     1.1580    -0.7660 nz         1 HCG      -0.796600
     11 O15          1.0090     3.1040     4.2320 o          1 HCG      -0.615100
     12 C16          0.7450     2.6900     7.7110 c3         1 HCG       0.031700
     13 S17          0.8800     1.1150     8.6180 sh         1 HCG      -0.363900
     14 O18          4.2550     2.5420     7.6660 o          1 HCG      -0.611100
     15 O19         -0.4750    -1.1140     0.6160 o          1 HCG      -0.777800
     16 O20         -0.7240     0.8550    -0.4890 o          1 HCG      -0.777800
     17 N29          3.0740     4.2160     8.7550 ns         1 HCG      -0.534900
     18 C30          4.0970     4.5480     9.7190 c3         1 HCG      -0.006000
     19 C31          3.9340     3.7010    10.9210 c          1 HCG       0.871600
     20 O42          2.8840     2.8220    10.9810 o          1 HCG      -0.840800
     21 O43          4.6930     3.8310    11.8360 o          1 HCG      -0.840800
     22 H2           1.8550    -0.8970    -0.5040 hx         1 HCG       0.094700
     23 H3C1         3.1760     0.0180     1.3520 hc         1 HCG       0.064700
     24 H3C2         1.7980    -0.9190     1.9130 hc         1 HCG       0.064700
     25 H4C1         1.9850     2.1050     1.8390 hc         1 HCG       0.058200
     26 H4C2         0.5650     1.1890     2.3510 hc         1 HCG       0.058200
     27 H7C1         1.9130     0.1340     4.1390 hc         1 HCG       0.065700
     28 H7C2         3.3050     1.0960     3.6420 hc         1 HCG       0.065700
     29 H11          2.9020     1.3280     6.0860 hn         1 HCG       0.344500
     30 H12          1.8150     4.0070     6.4370 h1         1 HCG       0.072700
     31 H141         1.5700     1.9910    -0.3850 hn         1 HCG       0.436133
     32 H142         1.6910     1.0590    -1.7220 hn         1 HCG       0.436133
     33 H161        -0.0880     2.6220     7.0230 h1         1 HCG       0.058700
     34 H162         0.5430     3.4820     8.4220 h1         1 HCG       0.058700
     35 HS          -0.2620     0.8680     9.2480 hs         1 HCG       0.197800
     36 H29          2.2100     4.7190     8.7790 hn         1 HCG       0.298500
     37 H30          4.0060     5.5910     9.9970 h1         1 HCG       0.039200
     38 HC1          5.0740     4.3740     9.2840 h1         1 HCG       0.039200
     39 H143         2.9710     1.2130    -0.7250 hn         1 HCG       0.436133
@<TRIPOS>BOND
     1     1     2 1
     2     1    15 1
     3     1    16 1
     4     2     3 1
     5     2    10 1
     6     2    22 1
     7     3     4 1
     8     3    23 1
     9     3    24 1
    10     4     5 1
    11     4    25 1
    12     4    26 1
    13     5     6 1
    14     5    27 1
    15     5    28 1
    16     6     7 1
    17     6    11 2
    18     7     8 1
    19     7    29 1
    20     8     9 1
    21     8    12 1
    22     8    30 1
    23     9    14 2
    24     9    17 1
    25    10    31 1
    26    10    32 1
    27    12    13 1
    28    12    33 1
    29    12    34 1
    30    13    35 1
    31    17    18 1
    32    17    36 1
    33    18    19 1
    34    18    37 1
    35    19    20 1
    36    19    21 1
    37    38    18 1
    38    39    10 1
@<TRIPOS>SUBSTRUCTURE
     1 HCG         1 TEMP              0 ****  ****    0 ROOT
