@<TRIPOS>MOLECULE
HCI
   20    20     1     0     0
SMALL
bcc


@<TRIPOS>ATOM
      1 C1          0.0330    0.0010    0.0580 c         1 HCI      0.908600
      2 O1          1.2980   -0.0030    0.0370 o         1 HCI     -0.850300
      3 O2         -0.6550   -0.0020    1.1180 o         1 HCI     -0.850300
      4 C2         -0.7360    0.0080   -1.2760 c3        1 HCI     -0.190400
      5 C3          0.2020    0.0130   -2.4620 c3        1 HCI     -0.036100
      6 C1'        -0.5220    0.0200   -3.7620 ca        1 HCI     -0.038300
      7 C2'        -0.8680    1.2290   -4.3800 ca        1 HCI     -0.138000
      8 C3'        -1.5440    1.2340   -5.5980 ca        1 HCI     -0.137000
      9 C4'        -1.8840    0.0320   -6.2170 ca        1 HCI     -0.161000
     10 C5'        -1.5470   -1.1770   -5.6080 ca        1 HCI     -0.137000
     11 C6'        -0.8720   -1.1840   -4.3900 ca        1 HCI     -0.138000
     12 H21        -1.3950    0.9120   -1.2980 hc        1 HCI      0.025700
     13 H22        -1.3960   -0.8940   -1.3070 hc        1 HCI      0.025700
     14 H31         0.8710    0.9130   -2.3860 hc        1 HCI      0.057700
     15 H32         0.8700   -0.8880   -2.3940 hc        1 HCI      0.057700
     16 H2'        -0.6040    2.1780   -3.8900 ha        1 HCI      0.133000
     17 H3'        -1.8110    2.1890   -6.0730 ha        1 HCI      0.113000
     18 H4'        -2.4170    0.0360   -7.1780 ha        1 HCI      0.111000
     19 H5'        -1.8170   -2.1270   -6.0900 ha        1 HCI      0.113000
     20 H6'        -0.6110   -2.1370   -3.9070 ha        1 HCI      0.133000
@<TRIPOS>BOND
     1    1    2 1   
     2    1    3 1   
     3    1    4 1   
     4    4    5 1   
     5    4   12 1   
     6    4   13 1   
     7    5    6 1   
     8    5   14 1   
     9    5   15 1   
    10    6    7 ar  
    11    6   11 ar  
    12    7    8 ar  
    13    7   16 1   
    14    8    9 ar  
    15    8   17 1   
    16    9   10 ar  
    17    9   18 1   
    18   10   11 ar  
    19   10   19 1   
    20   11   20 1   
@<TRIPOS>SUBSTRUCTURE
     1 HCI         1 TEMP              0 ****  ****    0 ROOT
