@<TRIPOS>MOLECULE
molecule
   20    20     1     0     0
SMALL
bcc


@<TRIPOS>ATOM
      1 C1           0.0000     0.0000     0.0000 c          1 HCI       0.890600
      2 O1           1.2080     0.0000     0.0000 o          1 HCI      -0.854300
      3 O2          -0.6710     0.0000     1.1620 o          1 HCI      -0.854300
      4 C2          -0.7540     0.0060    -1.3050 c3         1 HCI      -0.178400
      5 C3           0.2400     0.0130    -2.4670 c3         1 HCI      -0.029100
      6 C1'         -0.5130     0.0190    -3.7730 ca         1 HCI      -0.052300
      7 C2'         -0.8590     1.2200    -4.3650 ca         1 HCI      -0.132000
      8 C3'         -1.5500     1.2260    -5.5620 ca         1 HCI      -0.136000
      9 C4'         -1.8960     0.0330    -6.1670 ca         1 HCI      -0.159000
     10 C5'         -1.5500    -1.1680    -5.5750 ca         1 HCI      -0.136000
     11 C6'         -0.8540    -1.1740    -4.3810 ca         1 HCI      -0.132000
     12 H21         -1.3770     0.8910    -1.3570 hc         1 HCI       0.032700
     13 H22         -1.3760    -0.8780    -1.3660 hc         1 HCI       0.032700
     14 H31          0.8630    -0.8720    -2.4140 hc         1 HCI       0.055200
     15 H32          0.8630     0.8970    -2.4050 hc         1 HCI       0.055200
     16 H2'         -0.5870     2.1550    -3.8910 ha         1 HCI       0.132000
     17 H3'         -1.8210     2.1670    -6.0260 ha         1 HCI       0.112000
     18 H4'         -2.4400     0.0380    -7.1040 ha         1 HCI       0.109000
     19 H5'         -1.8190    -2.1040    -6.0500 ha         1 HCI       0.112000
     20 H6'         -0.5830    -2.1150    -3.9170 ha         1 HCI       0.132000
@<TRIPOS>BOND
     1     1     2 1
     2     1     3 1
     3     1     4 1
     4     4     5 1
     5     4    12 1
     6     4    13 1
     7     5     6 1
     8     5    14 1
     9     5    15 1
    10     6     7 ar
    11     6    11 ar
    12     7     8 ar
    13     7    16 1
    14     8     9 ar
    15     8    17 1
    16     9    10 ar
    17     9    18 1
    18    10    11 ar
    19    10    19 1
    20    11    20 1
@<TRIPOS>SUBSTRUCTURE
     1 HCI         1 TEMP              0 ****  ****    0 ROOT
