@<TRIPOS>MOLECULE
HCJ
   43    46     1     0     0
SMALL
bcc


@<TRIPOS>ATOM
      1 CAB          0.0000     0.0000     0.0000 c3         1 HCJ       0.120800
      2 NAD          1.4730     0.0000     0.0000 na         1 HCJ      -0.247400
      3 CAI          2.3480     0.0000     1.0500 cc         1 HCJ      -0.037000
      4 CAH          3.6760    -0.0000     0.8100 cd         1 HCJ      -0.263200
      5 CAG          4.1190    -0.0020    -0.5360 c          1 HCJ       0.708700
      6 OAJ          5.3130    -0.0040    -0.7900 o          1 HCJ      -0.589100
      7 NAF          3.2200    -0.0030    -1.5270 nc         1 HCJ      -0.622100
      8 CAE          1.9180    -0.0020    -1.2800 cd         1 HCJ       0.666500
      9 OAA          0.9100    -0.0030    -2.1800 os         1 HCJ      -0.333400
     10 CAC         -0.3740     0.0000    -1.4930 c3         1 HCJ       0.162100
     11 CAK         -1.1690     1.2580    -1.8490 c3         1 HCJ       0.189400
     12 OAL         -1.5260     1.2200    -3.2320 os         1 HCJ      -0.289900
     13 CAM         -2.2400     2.2700    -3.7150 ca         1 HCJ       0.153100
     14 CAN         -2.6200     2.2950    -5.0500 ca         1 HCJ      -0.169000
     15 CAO         -3.3450     3.3590    -5.5420 ca         1 HCJ      -0.050500
     16 CAR         -2.5940     3.3130    -2.8700 ca         1 HCJ      -0.169000
     17 CAQ         -3.3240     4.3780    -3.3540 ca         1 HCJ      -0.050500
     18 CAP         -3.6970     4.4110    -4.6980 cp         1 HCJ      -0.076000
     19 CAS         -4.4820     5.5560    -5.2230 cp         1 HCJ      -0.024000
     20 CAT         -4.8560     5.5900    -6.5640 ca         1 HCJ      -0.044000
     21 CAX         -4.8530     6.5970    -4.3750 ca         1 HCJ      -0.074000
     22 CAW         -5.5880     7.6560    -4.8670 ca         1 HCJ      -0.100000
     23 CAV         -5.9560     7.6850    -6.2000 ca         1 HCJ      -0.051000
     24 CAU         -5.5860     6.6560    -7.0480 ca         1 HCJ      -0.203300
     25 CAY         -5.9900     6.6950    -8.4990 c3         1 HCJ       0.640200
     26 FBA         -4.8450     6.6890    -9.3030 f          1 HCJ      -0.207633
     27 FBB         -6.7740     5.5750    -8.7950 f          1 HCJ      -0.207633
     28 FAZ         -6.7270     7.8580    -8.7470 f          1 HCJ      -0.207633
     29 H1          -0.3670     0.9040     0.4700 h1         1 HCJ       0.042200
     30 H2          -0.3670    -0.9050     0.4700 h1         1 HCJ       0.042200
     31 H3           1.9780     0.0010     2.0680 h4         1 HCJ       0.129000
     32 H4           4.3700     0.2300     1.6090 ha         1 HCJ       0.143000
     33 H5          -0.9350    -0.8920    -1.7410 h1         1 HCJ       0.058700
     34 H6          -2.0670     1.3010    -1.2450 h1         1 HCJ       0.016200
     35 H7          -0.5620     2.1350    -1.6570 h1         1 HCJ       0.016200
     36 H8          -2.3460     1.4780    -5.7060 ha         1 HCJ       0.118500
     37 H9          -3.6370     3.3800    -6.5840 ha         1 HCJ       0.112500
     38 H10         -2.3040     3.2860    -1.8270 ha         1 HCJ       0.118500
     39 H11         -3.5980     5.1930    -2.6950 ha         1 HCJ       0.112500
     40 H12         -4.5660     4.7850    -7.2290 ha         1 HCJ       0.123000
     41 H13         -4.5650     6.5750    -3.3300 ha         1 HCJ       0.113000
     42 H14         -5.8790     8.4660    -4.2080 ha         1 HCJ       0.110000
     43 H15         -6.5310     8.5190    -6.5830 ha         1 HCJ       0.121000
@<TRIPOS>BOND
     1     1     2 1   
     2     1    10 1   
     3     1    29 1   
     4     1    30 1   
     5     2     3 1   
     6     2     8 1   
     7     3     4 2   
     8     3    31 1   
     9     4     5 1   
    10     4    32 1   
    11     5     6 2   
    12     5     7 1   
    13     7     8 2   
    14     8     9 1   
    15     9    10 1   
    16    10    11 1   
    17    10    33 1   
    18    11    12 1   
    19    11    34 1   
    20    11    35 1   
    21    12    13 1   
    22    13    14 ar  
    23    13    16 ar  
    24    14    15 ar  
    25    14    36 1   
    26    15    18 ar  
    27    15    37 1   
    28    16    17 ar  
    29    16    38 1   
    30    17    18 ar  
    31    17    39 1   
    32    18    19 1   
    33    19    20 ar  
    34    19    21 ar  
    35    20    24 ar  
    36    20    40 1   
    37    21    22 ar  
    38    21    41 1   
    39    22    23 ar  
    40    22    42 1   
    41    23    24 ar  
    42    23    43 1   
    43    24    25 1   
    44    25    26 1   
    45    25    27 1   
    46    25    28 1   
@<TRIPOS>SUBSTRUCTURE
     1 HCJ         1 TEMP              0 ****  ****    0 ROOT
