@<TRIPOS>MOLECULE
molecule
   43    46     1     0     0
SMALL
bcc


@<TRIPOS>ATOM
      1 CAB          0.0000     0.0000     0.0000 c3         1 HCJ       0.178800
      2 NAD          1.4730     0.0000     0.0000 na         1 HCJ      -0.661400
      3 CAI          2.3480     0.0000     1.0500 cc         1 HCJ       0.091000
      4 CAH          3.6760    -0.0000     0.8100 cd         1 HCJ      -0.303200
      5 CAG          4.1190    -0.0020    -0.5360 c          1 HCJ       0.717700
      6 OAJ          5.3130    -0.0040    -0.7900 o          1 HCJ      -0.550100
      7 NAF          3.2200    -0.0030    -1.5270 nc         1 HCJ      -0.715100
      8 CAE          1.9180    -0.0020    -1.2800 cd         1 HCJ       0.844500
      9 OAA          0.9100    -0.0030    -2.1800 os         1 HCJ      -0.340400
     10 CAC         -0.3740     0.0000    -1.4930 c3         1 HCJ       0.130100
     11 CAK         -1.1690     1.2580    -1.8490 c3         1 HCJ       0.130400
     12 OAL         -1.5260     1.2200    -3.2320 os         1 HCJ      -0.313900
     13 CAM         -2.2400     2.2700    -3.7150 ca         1 HCJ       0.144100
     14 CAN         -2.6200     2.2950    -5.0500 ca         1 HCJ      -0.183500
     15 CAO         -3.3450     3.3590    -5.5420 ca         1 HCJ      -0.077500
     16 CAR         -2.5940     3.3130    -2.8700 ca         1 HCJ      -0.183500
     17 CAQ         -3.3240     4.3780    -3.3540 ca         1 HCJ      -0.077500
     18 CAP         -3.6970     4.4110    -4.6980 cp         1 HCJ      -0.074000
     19 CAS         -4.4820     5.5560    -5.2230 cp         1 HCJ      -0.029000
     20 CAT         -4.8560     5.5900    -6.5640 ca         1 HCJ      -0.076000
     21 CAX         -4.8530     6.5970    -4.3750 ca         1 HCJ      -0.099000
     22 CAW         -5.5880     7.6560    -4.8670 ca         1 HCJ      -0.128000
     23 CAV         -5.9560     7.6850    -6.2000 ca         1 HCJ      -0.086000
     24 CAU         -5.5860     6.6560    -7.0480 ca         1 HCJ      -0.174300
     25 CAY         -5.9900     6.6950    -8.4990 c3         1 HCJ       0.674200
     26 FBA         -4.8450     6.6890    -9.3030 f          1 HCJ      -0.222967
     27 FBB         -6.7740     5.5750    -8.7950 f          1 HCJ      -0.222967
     28 FAZ         -6.7270     7.8580    -8.7470 f          1 HCJ      -0.222967
     29 H1          -0.3670     0.9040     0.4700 h1         1 HCJ       0.076700
     30 H2          -0.3670    -0.9050     0.4700 h1         1 HCJ       0.076700
     31 H3           1.9780     0.0010     2.0680 h4         1 HCJ       0.159000
     32 H4           4.3700     0.2300     1.6090 ha         1 HCJ       0.171000
     33 H5          -0.9350    -0.8920    -1.7410 h1         1 HCJ       0.104700
     34 H6          -2.0670     1.3010    -1.2450 h1         1 HCJ       0.053700
     35 H7          -0.5620     2.1350    -1.6570 h1         1 HCJ       0.053700
     36 H8          -2.3460     1.4780    -5.7060 ha         1 HCJ       0.141000
     37 H9          -3.6370     3.3800    -6.5840 ha         1 HCJ       0.139500
     38 H10         -2.3040     3.2860    -1.8270 ha         1 HCJ       0.141000
     39 H11         -3.5980     5.1930    -2.6950 ha         1 HCJ       0.139500
     40 H12         -4.5660     4.7850    -7.2290 ha         1 HCJ       0.147000
     41 H13         -4.5650     6.5750    -3.3300 ha         1 HCJ       0.137000
     42 H14         -5.8790     8.4660    -4.2080 ha         1 HCJ       0.140000
     43 H15         -6.5310     8.5190    -6.5830 ha         1 HCJ       0.151000
@<TRIPOS>BOND
     1    22    23 ar
     2    22    21 ar
     3    23    24 ar
     4    21    19 ar
     5    27    25 1
     6    24    25 1
     7    24    20 ar
     8    25    28 1
     9    25    26 1
    10    19    20 ar
    11    19    18 1
    12    17    18 ar
    13    17    16 ar
    14    18    15 ar
    15    16    13 ar
    16     6     5 2
    17    15    14 ar
    18    13    14 ar
    19    13    12 1
    20     5     4 1
    21     5     7 1
    22     4     3 2
    23     7     8 2
    24    12    11 1
    25     3     2 1
    26     8     2 1
    27     8     9 1
    28     2     1 1
    29    11    10 1
    30     9    10 1
    31    10     1 1
    32     1    29 1
    33     1    30 1
    34     3    31 1
    35     4    32 1
    36    10    33 1
    37    11    34 1
    38    11    35 1
    39    14    36 1
    40    15    37 1
    41    16    38 1
    42    17    39 1
    43    20    40 1
    44    21    41 1
    45    22    42 1
    46    23    43 1
@<TRIPOS>SUBSTRUCTURE
     1 HCJ         1 TEMP              0 ****  ****    0 ROOT
