@<TRIPOS>MOLECULE
molecule
   38    40     1     0     0
SMALL
bcc


@<TRIPOS>ATOM
      1 C1           0.0000     0.0000     0.0000 ca         1 HCK      -0.136000
      2 C2           1.3990     0.0000     0.0000 ca         1 HCK      -0.056000
      3 C3           2.0990     0.0000     1.2120 ca         1 HCK      -0.136000
      4 C4           1.4160     0.0010     2.3930 ca         1 HCK      -0.104500
      5 C5           0.0170     0.0020     2.3940 ca         1 HCK      -0.082600
      6 C6          -0.6830     0.0010     1.1820 ca         1 HCK      -0.104500
      7 C13          2.1360    -0.0010    -1.2770 cc         1 HCK      -0.043400
      8 C15          3.4800    -0.0020    -1.4190 cd         1 HCK       0.357200
      9 N16          3.8910    -0.0030    -2.6670 nd         1 HCK      -0.674000
     10 C17          2.9780    -0.0040    -3.5920 cc         1 HCK       0.525300
     11 S18          1.4210    -0.0100    -2.8860 ss         1 HCK      -0.239300
     12 C24         -0.7200     0.0030     3.6700 c          1 HCK       0.878200
     13 O26         -2.0670     0.0030     3.6700 o          1 HCK      -0.832800
     14 O28         -0.1130     0.0020     4.7220 o          1 HCK      -0.832800
     15 N30          3.2310    -0.0040    -4.9550 ns         1 HCK      -0.526400
     16 C32          4.5010    -0.0050    -5.4040 c          1 HCK       0.663700
     17 C33          4.7710    -0.0060    -6.8550 ca         1 HCK      -0.180600
     18 O36          5.4250    -0.0050    -4.6140 o          1 HCK      -0.537100
     19 C38          3.7090     0.0010    -7.7640 ca         1 HCK      -0.050000
     20 C39          3.9650     0.0050    -9.1170 ca         1 HCK      -0.201500
     21 C40          5.2750     0.0040    -9.5790 ca         1 HCK       0.157100
     22 C41          6.3350    -0.0020    -8.6770 ca         1 HCK      -0.201500
     23 C42          6.0870    -0.0060    -7.3230 ca         1 HCK      -0.050000
     24 O49          5.5230     0.0090   -10.9130 os         1 HCK      -0.328900
     25 C51          6.8940     0.0070   -11.3190 c3         1 HCK       0.128700
     26 H1          -0.5420    -0.0000    -0.9380 ha         1 HCK       0.110000
     27 H2           3.1820    -0.0000     1.2120 ha         1 HCK       0.110000
     28 H3           1.9580     0.0010     3.3320 ha         1 HCK       0.154500
     29 H4          -1.7660     0.0010     1.1810 ha         1 HCK       0.154500
     30 H5           4.1610    -0.0010    -0.5760 h4         1 HCK       0.051100
     31 H7           2.4700    -0.0210    -5.6050 hn         1 HCK       0.328500
     32 H8           2.6870     0.0010    -7.4050 ha         1 HCK       0.145500
     33 H9           3.1430     0.0100    -9.8230 ha         1 HCK       0.141000
     34 H10          7.3550    -0.0030    -9.0410 ha         1 HCK       0.141000
     35 H11          6.9120    -0.0110    -6.6210 ha         1 HCK       0.145500
     36 H12          7.3830    -0.8800   -10.9350 h1         1 HCK       0.042367
     37 H13          6.9500     0.0110   -12.4000 h1         1 HCK       0.042367
     38 H14          7.3870     0.8890   -10.9280 h1         1 HCK       0.042367
@<TRIPOS>BOND
     1    25    24 1
     2    24    21 1
     3    20    21 ar
     4    20    19 ar
     5    21    22 ar
     6    19    17 ar
     7    22    23 ar
     8    17    23 ar
     9    17    16 1
    10    18    16 2
    11    16    15 1
    12    15    10 1
    13    11    10 1
    14    11     7 1
    15    10     9 2
    16     3     4 ar
    17     3     2 ar
    18     4     5 ar
    19     7     2 1
    20     7     8 2
    21     9     8 1
    22     2     1 ar
    23    14    12 1
    24     5    12 1
    25     5     6 ar
    26    12    13 1
    27     1     6 ar
    28     1    26 1
    29     3    27 1
    30     4    28 1
    31     6    29 1
    32     8    30 1
    33    15    31 1
    34    19    32 1
    35    20    33 1
    36    22    34 1
    37    23    35 1
    38    25    36 1
    39    25    37 1
    40    25    38 1
@<TRIPOS>SUBSTRUCTURE
     1 HCK         1 TEMP              0 ****  ****    0 ROOT
