@<TRIPOS>MOLECULE
HCK
   38    40     1     0     0
SMALL
bcc


@<TRIPOS>ATOM
      1 C1           0.0000     0.0000     0.0000 ca         1 HCK      -0.115000
      2 C2           1.3990     0.0000     0.0000 ca         1 HCK      -0.061000
      3 C3           2.0990     0.0000     1.2120 ca         1 HCK      -0.115000
      4 C4           1.4160     0.0010     2.3930 ca         1 HCK      -0.079500
      5 C5           0.0170     0.0020     2.3940 ca         1 HCK      -0.075600
      6 C6          -0.6830     0.0010     1.1820 ca         1 HCK      -0.079500
      7 C13          2.1360    -0.0010    -1.2770 cc         1 HCK       0.022600
      8 C15          3.4800    -0.0020    -1.4190 cd         1 HCK       0.321200
      9 N16          3.8910    -0.0030    -2.6670 nd         1 HCK      -0.534000
     10 C17          2.9780    -0.0040    -3.5920 cc         1 HCK       0.349300
     11 S18          1.4210    -0.0100    -2.8860 ss         1 HCK      -0.332300
     12 C24         -0.7200     0.0030     3.6700 c          1 HCK       0.968200
     13 O26         -2.0670     0.0030     3.6700 o          1 HCK      -0.879800
     14 O28         -0.1130     0.0020     4.7220 o          1 HCK      -0.879800
     15 N30          3.2310    -0.0040    -4.9550 ns         1 HCK      -0.069400
     16 C32          4.5010    -0.0050    -5.4040 c          1 HCK       0.562700
     17 C33          4.7710    -0.0060    -6.8550 ca         1 HCK      -0.195600
     18 O36          5.4250    -0.0050    -4.6140 o          1 HCK      -0.582100
     19 C38          3.7090     0.0010    -7.7640 ca         1 HCK      -0.017500
     20 C39          3.9650     0.0050    -9.1170 ca         1 HCK      -0.189500
     21 C40          5.2750     0.0040    -9.5790 ca         1 HCK       0.166100
     22 C41          6.3350    -0.0020    -8.6770 ca         1 HCK      -0.189500
     23 C42          6.0870    -0.0060    -7.3230 ca         1 HCK      -0.017500
     24 O49          5.5230     0.0090   -10.9130 os         1 HCK      -0.309900
     25 C51          6.8940     0.0070   -11.3190 c3         1 HCK       0.244700
     26 H1          -0.5420    -0.0000    -0.9380 ha         1 HCK       0.093500
     27 H2           3.1820    -0.0000     1.2120 ha         1 HCK       0.093500
     28 H3           1.9580     0.0010     3.3320 ha         1 HCK       0.128500
     29 H4          -1.7660     0.0010     1.1810 ha         1 HCK       0.128500
     30 H5           4.1610    -0.0010    -0.5760 h4         1 HCK       0.012100
     31 H7           2.4700    -0.0210    -5.6050 hn         1 HCK       0.170500
     32 H8           2.6870     0.0010    -7.4050 ha         1 HCK       0.115000
     33 H9           3.1430     0.0100    -9.8230 ha         1 HCK       0.119000
     34 H10          7.3550    -0.0030    -9.0410 ha         1 HCK       0.119000
     35 H11          6.9120    -0.0110    -6.6210 ha         1 HCK       0.115000
     36 H12          7.3830    -0.8800   -10.9350 h1         1 HCK      -0.002300
     37 H13          6.9500     0.0110   -12.4000 h1         1 HCK      -0.002300
     38 H14          7.3870     0.8890   -10.9280 h1         1 HCK      -0.002300
@<TRIPOS>BOND
     1     1     2 ar  
     2     1     6 ar  
     3     1    26 1   
     4     2     3 ar  
     5     2     7 1   
     6     3     4 ar  
     7     3    27 1   
     8     4     5 ar  
     9     4    28 1   
    10     5     6 ar  
    11     5    12 1   
    12     6    29 1   
    13     7     8 2   
    14     7    11 1   
    15     8     9 1   
    16     8    30 1   
    17     9    10 2   
    18    10    11 1   
    19    10    15 1   
    20    12    13 1   
    21    12    14 1   
    22    15    16 1   
    23    15    31 1   
    24    16    17 1   
    25    16    18 2   
    26    17    19 ar  
    27    17    23 ar  
    28    19    20 ar  
    29    19    32 1   
    30    20    21 ar  
    31    20    33 1   
    32    21    22 ar  
    33    21    24 1   
    34    22    23 ar  
    35    22    34 1   
    36    23    35 1   
    37    24    25 1   
    38    25    36 1   
    39    25    37 1   
    40    25    38 1   
@<TRIPOS>SUBSTRUCTURE
     1 HCK         1 TEMP              0 ****  ****    0 ROOT
