@<TRIPOS>MOLECULE
molecule
   41    42     1     0     0
SMALL
bcc


@<TRIPOS>ATOM
      1 C3           0.0000     0.0000     0.0000 ca         1 HCP      -0.011200
      2 C2           1.3870     0.0000     0.0000 ca         1 HCP       0.296600
      3 N1           2.0620     0.0000     1.1320 nb         1 HCP      -0.748000
      4 C6           1.4610    -0.0060     2.3070 ca         1 HCP       0.391200
      5 C4          -0.6790    -0.0130     1.2290 ca         1 HCP      -0.088900
      6 C4A         -2.1530    -0.0190     1.2830 ce         1 HCP       0.402800
      7 N2          -2.8390    -0.0190     0.1880 n2         1 HCP      -0.571900
      8 C           -4.3030    -0.0260     0.2400 c3         1 HCP       0.007000
      9 CA1         -4.8950    -0.0230    -1.1850 c3         1 HCP      -0.040400
     10 CB1         -5.1780    -1.4930    -1.5440 c3         1 HCP      -0.085400
     11 CB2         -4.7470    -2.3360    -0.3270 c3         1 HCP      -0.085400
     12 CA2         -4.8170    -1.3480     0.8630 c3         1 HCP      -0.040400
     13 P2          -4.9130     1.4080     1.1860 p5         1 HCP       1.001700
     14 O6          -6.5210     1.3670     1.2450 o          1 HCP      -0.887167
     15 O7          -4.4740     2.6570     0.5240 o          1 HCP      -0.887167
     16 O8          -4.3190     1.3560     2.6810 o          1 HCP      -0.887167
     17 O1          -0.6890     0.0010    -1.1690 oh         1 HCP      -0.497100
     18 C2A          2.1320     0.0070    -1.3100 c3         1 HCP      -0.115400
     19 C5           0.0840    -0.0130     2.4020 ca         1 HCP      -0.124600
     20 C5A         -0.5870    -0.0180     3.7510 c3         1 HCP       0.179700
     21 O2           0.4060    -0.0160     4.7770 os         1 HCP      -0.573200
     22 P1          -0.3790    -0.0240     6.1840 p5         1 HCP       1.165900
     23 O5          -1.2220    -1.2370     6.2710 o          1 HCP      -0.916833
     24 O3           0.6860    -0.0220     7.3920 o          1 HCP      -0.916833
     25 O4          -1.3080     1.2850     6.2860 o          1 HCP      -0.916833
     26 HC6          2.0580    -0.0060     3.2110 h4         1 HCP       0.051100
     27 HC4         -2.6600    -0.0240     2.2400 h4         1 HCP       0.079800
     28 HA11        -4.1800     0.3970    -1.8820 hc         1 HCP       0.049950
     29 HA12        -5.8170     0.5450    -1.2010 hc         1 HCP       0.049950
     30 HB11        -6.2360    -1.6310    -1.7330 hc         1 HCP      -0.003800
     31 HB12        -4.6000    -1.7790    -2.4150 hc         1 HCP      -0.003800
     32 HB21        -3.7340    -2.6980    -0.4580 hc         1 HCP      -0.003800
     33 HB22        -5.4340    -3.1590    -0.1750 hc         1 HCP      -0.003800
     34 HA21        -5.8380    -1.2360     1.2080 hc         1 HCP       0.049950
     35 HA22        -4.1660    -1.6700     1.6670 hc         1 HCP       0.049950
     36 HO1         -0.6300     0.8530    -1.5680 ho         1 HCP       0.395000
     37 HC21         1.7820    -0.8100    -1.9290 hc         1 HCP       0.014367
     38 HC22         3.1930    -0.1110    -1.1230 hc         1 HCP       0.014367
     39 HC23         1.9580     0.9470    -1.8190 hc         1 HCP       0.014367
     40 HC51        -1.2020    -0.9050     3.8450 h1         1 HCP       0.097200
     41 HC52        -1.2090     0.8640     3.8480 h1         1 HCP       0.097200
@<TRIPOS>BOND
     1     1     2 ar
     2     1     5 ar
     3     1    17 1
     4     2     3 ar
     5     2    18 1
     6     3     4 ar
     7     4    19 ar
     8     4    26 1
     9     5     6 1
    10     5    19 ar
    11     6     7 2
    12     6    27 1
    13     7     8 1
    14     8     9 1
    15     8    12 1
    16     8    13 1
    17     9    10 1
    18     9    28 1
    19     9    29 1
    20    10    11 1
    21    10    30 1
    22    10    31 1
    23    11    12 1
    24    11    32 1
    25    11    33 1
    26    12    34 1
    27    12    35 1
    28    13    14 1
    29    13    15 1
    30    13    16 1
    31    17    36 1
    32    18    37 1
    33    18    38 1
    34    18    39 1
    35    19    20 1
    36    20    21 1
    37    20    40 1
    38    20    41 1
    39    21    22 1
    40    22    23 1
    41    22    24 1
    42    22    25 1
@<TRIPOS>SUBSTRUCTURE
     1 HCP         1 TEMP              0 ****  ****    0 ROOT
