@<TRIPOS>MOLECULE
HCP
   41    43     1     0     0
SMALL
bcc


@<TRIPOS>ATOM
      1 C3           0.0000     0.0000     0.0000 c2         1 HCP      -0.043000
      2 C2           1.3870     0.0000     0.0000 c2         1 HCP      -0.205000
      3 N1           2.0620     0.0000     1.1320 n2         1 HCP      -0.127000
      4 C6           1.4610    -0.0060     2.3070 c2         1 HCP      -0.127000
      5 C4          -0.6790    -0.0130     1.2290 c3         1 HCP      -0.122000
      6 C4A         -2.1530    -0.0190     1.2830 c2         1 HCP      -0.283000
      7 N2          -2.8390    -0.0190     0.1880 n2         1 HCP       0.010000
      8 C           -4.3030    -0.0260     0.2400 c3         1 HCP      -0.364000
      9 CA1         -4.8950    -0.0230    -1.1850 c3         1 HCP      -0.064500
     10 CB1         -5.1780    -1.4930    -1.5440 c3         1 HCP      -0.119500
     11 CB2         -4.7470    -2.3360    -0.3270 c3         1 HCP      -0.119500
     12 CA2         -4.8170    -1.3480     0.8630 c3         1 HCP      -0.064500
     13 P2          -4.9130     1.4080     1.1860 p5         1 HCP       0.795500
     14 O6          -6.5210     1.3670     1.2450 o          1 HCP      -0.695833
     15 O7          -4.4740     2.6570     0.5240 o          1 HCP      -0.695833
     16 O8          -4.3190     1.3560     2.6810 o          1 HCP      -0.695833
     17 O1          -0.6890     0.0010    -1.1690 oh         1 HCP      -0.225000
     18 C2A          2.1320     0.0070    -1.3100 c3         1 HCP      -0.034000
     19 C5           0.0840    -0.0130     2.4020 c2         1 HCP      -0.015000
     20 C5A         -0.5870    -0.0180     3.7510 c3         1 HCP       0.104000
     21 O2           0.4060    -0.0160     4.7770 os         1 HCP      -0.651000
     22 P1          -0.3790    -0.0240     6.1840 p5         1 HCP       0.904500
     23 O5          -1.2220    -1.2370     6.2710 o          1 HCP      -0.769167
     24 O3           0.6860    -0.0220     7.3920 o          1 HCP      -0.769167
     25 O4          -1.3080     1.2850     6.2860 o          1 HCP      -0.769167
     26 HC6          2.0580    -0.0060     3.2110 h4         1 HCP       0.150000
     27 HC4         -1.5520     0.8590     1.0790 DU         1 HCP       0.255000
     28 HA11        -5.8170     0.5450    -1.2010 hc         1 HCP       0.066000
     29 HA12        -4.1800     0.3970    -1.8820 hc         1 HCP       0.066000
     30 HB11        -6.2360    -1.6310    -1.7330 hc         1 HCP       0.011500
     31 HB12        -4.6000    -1.7790    -2.4150 hc         1 HCP       0.011500
     32 HB21        -5.4340    -3.1590    -0.1750 hc         1 HCP       0.011500
     33 HB22        -3.7340    -2.6980    -0.4580 hc         1 HCP       0.011500
     34 HA21        -5.8380    -1.2360     1.2080 hc         1 HCP       0.066000
     35 HA22        -4.1660    -1.6700     1.6670 hc         1 HCP       0.066000
     36 HO1         -0.5740     0.8310    -1.6010 ho         1 HCP       0.162000
     37 HC21         1.7800    -0.8080    -1.9300 hc         1 HCP       0.016000
     38 HC22         3.1920    -0.1140    -1.1230 hc         1 HCP       0.016000
     39 HC23         1.9600     0.9480    -1.8180 hc         1 HCP       0.016000
     40 HC51        -1.2090     0.8640     3.8480 h1         1 HCP       0.109000
     41 HC52        -1.2020    -0.9050     3.8450 h1         1 HCP       0.109000
@<TRIPOS>BOND
     1     1     2 1   
     2     1     5 1   
     3     1    17 1   
     4     2     3 1   
     5     2    18 1   
     6     3     4 1   
     7     4    19 1   
     8     4    26 1   
     9     5     6 1   
    10     5    19 1   
    11     5    27 1   
    12     6     7 1   
    13     6    27 1   
    14     7     8 1   
    15     8     9 1   
    16     8    12 1   
    17     8    13 1   
    18     9    10 1   
    19     9    28 1   
    20     9    29 1   
    21    10    11 1   
    22    10    30 1   
    23    10    31 1   
    24    11    12 1   
    25    11    32 1   
    26    11    33 1   
    27    12    34 1   
    28    12    35 1   
    29    13    14 1   
    30    13    15 1   
    31    13    16 1   
    32    17    36 1   
    33    18    37 1   
    34    18    38 1   
    35    18    39 1   
    36    19    20 1   
    37    20    21 1   
    38    20    40 1   
    39    20    41 1   
    40    21    22 1   
    41    22    23 1   
    42    22    24 1   
    43    22    25 1   
@<TRIPOS>SUBSTRUCTURE
     1 HCP         1 TEMP              0 ****  ****    0 ROOT
