@<TRIPOS>MOLECULE
HCR
   75    78     1     0     0
SMALL
bcc


@<TRIPOS>ATOM
      1 C18         2.0340    0.1470    0.1590 c3        1 HCR     -0.082100
      2 C13         0.5210    0.0290    0.1180 c3        1 HCR     -0.045000
      3 C12        -0.0530   -0.0610    1.5220 c3        1 HCR     -0.066400
      4 C11         0.4090   -1.3350    2.2120 c3        1 HCR     -0.074400
      5 C9          0.1290   -2.6130    1.4280 c3        1 HCR     -0.048700
      6 C10         0.6940   -3.8580    2.1480 c3        1 HCR     -0.004800
      7 C19         2.1740   -3.6830    2.4800 c3        1 HCR     -0.085100
      8 C1         -0.1010   -4.0510    3.4490 c3        1 HCR     -0.067400
      9 C2          0.1880   -5.3640    4.1380 c3        1 HCR     -0.114400
     10 C3         -0.1050   -6.5320    3.2040 c3        1 HCR      0.145100
     11 O1          0.2650   -7.7720    3.7960 oh        1 HCR     -0.601800
     12 C4          0.7140   -6.4100    1.9230 c3        1 HCR     -0.044200
     13 C5          0.5370   -5.0780    1.2740 c2        1 HCR     -0.080400
     14 C6          0.3030   -5.0080   -0.0430 c2        1 HCR     -0.213200
     15 C7          0.1350   -3.7410   -0.8090 c3        1 HCR      0.181300
     16 O2          0.8830   -3.7700   -2.0240 oh        1 HCR     -0.595800
     17 C8          0.6160   -2.5130   -0.0250 c3        1 HCR     -0.041700
     18 C14         0.0450   -1.2450   -0.6270 c3        1 HCR     -0.058700
     19 C15         0.3190   -0.9410   -2.0920 c3        1 HCR     -0.069400
     20 C16         0.0980    0.5670   -2.2170 c3        1 HCR     -0.079400
     21 C17        -0.0730    1.1340   -0.7910 c3        1 HCR     -0.053700
     22 C20         0.5200    2.5330   -0.6560 c3        1 HCR     -0.055700
     23 C21         0.3750    3.0680    0.7550 c3        1 HCR     -0.091100
     24 C22        -0.1580    3.4900   -1.6340 c3        1 HCR     -0.080400
     25 C23         0.7130    4.6890   -1.9530 c3        1 HCR     -0.079400
     26 C24         0.0060    5.6350   -2.9000 c3        1 HCR     -0.076400
     27 C25         0.8690    6.8320   -3.2730 c3        1 HCR     -0.067700
     28 C27         0.3190    7.5030   -4.5160 c3        1 HCR     -0.089600
     29 C26         0.9540    7.8290   -2.1370 c3        1 HCR     -0.089600
     30 H181        2.3360    1.0540    0.7380 hc        1 HCR      0.036033
     31 H182        2.4430    0.2320   -0.8770 hc        1 HCR      0.036033
     32 H183        2.5010   -0.7420    0.6460 hc        1 HCR      0.036033
     33 H121       -1.1730   -0.0410    1.4710 hc        1 HCR      0.041200
     34 H122        0.2700    0.8190    2.1360 hc        1 HCR      0.041200
     35 H111       -0.1100   -1.4010    3.2050 hc        1 HCR      0.041200
     36 H112        1.5090   -1.2500    2.4160 hc        1 HCR      0.041200
     37 H9         -0.9930   -2.7410    1.3840 hc        1 HCR      0.046700
     38 H191        2.7320   -3.2950    1.5950 hc        1 HCR      0.040033
     39 H192        2.6250   -4.6590    2.7820 hc        1 HCR      0.040033
     40 H193        2.3020   -2.9670    3.3280 hc        1 HCR      0.040033
     41 H11         0.1420   -3.2140    4.1540 hc        1 HCR      0.045200
     42 H12        -1.1980   -3.9920    3.2170 hc        1 HCR      0.045200
     43 H21         1.2610   -5.4090    4.4590 hc        1 HCR      0.048200
     44 H22        -0.4440   -5.4520    5.0590 hc        1 HCR      0.048200
     45 H3         -1.2040   -6.5560    2.9580 h1        1 HCR      0.036700
     46 HO1        -0.1930   -7.8220    4.6430 ho        1 HCR      0.400000
     47 H41         0.4160   -7.2380    1.2270 hc        1 HCR      0.063200
     48 H42         1.8000   -6.5630    2.1700 hc        1 HCR      0.063200
     49 H6          0.2160   -5.9260   -0.6480 ha        1 HCR      0.122000
     50 H7         -0.9590   -3.6210   -1.0690 h1        1 HCR      0.038700
     51 HO2         0.6830   -4.6080   -2.4570 ho        1 HCR      0.397000
     52 H8          1.7380   -2.4930   -0.0690 hc        1 HCR      0.076700
     53 H14        -1.0780   -1.3000   -0.5050 hc        1 HCR      0.040700
     54 H151        1.3650   -1.2270   -2.3660 hc        1 HCR      0.051200
     55 H152       -0.3670   -1.5200   -2.7560 hc        1 HCR      0.051200
     56 H161       -0.8140    0.7810   -2.8260 hc        1 HCR      0.040200
     57 H162        0.9720    1.0450   -2.7260 hc        1 HCR      0.040200
     58 H17        -1.1720    1.2080   -0.5620 hc        1 HCR      0.044700
     59 H20         1.6160    2.4830   -0.9130 hc        1 HCR      0.050700
     60 H211        0.5560    4.1700    0.7760 hc        1 HCR      0.033367
     61 H212       -0.6530    2.8740    1.1460 hc        1 HCR      0.033367
     62 H213        1.1130    2.5870    1.4410 hc        1 HCR      0.033367
     63 H221       -0.3980    2.9590   -2.5920 hc        1 HCR      0.041200
     64 H222       -1.1320    3.8360   -1.1980 hc        1 HCR      0.041200
     65 H231        1.6740    4.3400   -2.4160 hc        1 HCR      0.039700
     66 H232        0.9800    5.2300   -1.0080 hc        1 HCR      0.039700
     67 H241       -0.2720    5.0780   -3.8340 hc        1 HCR      0.039700
     68 H242       -0.9480    5.9950   -2.4330 hc        1 HCR      0.039700
     69 H25         1.9100    6.4630   -3.5020 hc        1 HCR      0.046700
     70 H271       -0.7290    7.8480   -4.3420 hc        1 HCR      0.032700
     71 H272        0.9430    8.3890   -4.7860 hc        1 HCR      0.032700
     72 H273        0.3200    6.7930   -5.3770 hc        1 HCR      0.032700
     73 H261        1.5980    8.6940   -2.4290 hc        1 HCR      0.032700
     74 H262       -0.0610    8.2180   -1.8790 hc        1 HCR      0.032700
     75 H263        1.3930    7.3530   -1.2280 hc        1 HCR      0.032700
@<TRIPOS>BOND
     1    1    2 1   
     2    1   30 1   
     3    1   31 1   
     4    1   32 1   
     5    2    3 1   
     6    2   18 1   
     7    2   21 1   
     8    3    4 1   
     9    3   33 1   
    10    3   34 1   
    11    4    5 1   
    12    4   35 1   
    13    4   36 1   
    14    5    6 1   
    15    5   17 1   
    16    5   37 1   
    17    6    7 1   
    18    6    8 1   
    19    6   13 1   
    20    7   38 1   
    21    7   39 1   
    22    7   40 1   
    23    8    9 1   
    24    8   41 1   
    25    8   42 1   
    26    9   10 1   
    27    9   43 1   
    28    9   44 1   
    29   10   11 1   
    30   10   12 1   
    31   10   45 1   
    32   11   46 1   
    33   12   13 1   
    34   12   47 1   
    35   12   48 1   
    36   13   14 2   
    37   14   15 1   
    38   14   49 1   
    39   15   16 1   
    40   15   17 1   
    41   15   50 1   
    42   16   51 1   
    43   17   18 1   
    44   17   52 1   
    45   18   19 1   
    46   18   53 1   
    47   19   20 1   
    48   19   54 1   
    49   19   55 1   
    50   20   21 1   
    51   20   56 1   
    52   20   57 1   
    53   21   22 1   
    54   21   58 1   
    55   22   23 1   
    56   22   24 1   
    57   22   59 1   
    58   23   60 1   
    59   23   61 1   
    60   23   62 1   
    61   24   25 1   
    62   24   63 1   
    63   24   64 1   
    64   25   26 1   
    65   25   65 1   
    66   25   66 1   
    67   26   27 1   
    68   26   67 1   
    69   26   68 1   
    70   27   28 1   
    71   27   29 1   
    72   27   69 1   
    73   28   70 1   
    74   28   71 1   
    75   28   72 1   
    76   29   73 1   
    77   29   74 1   
    78   29   75 1   
@<TRIPOS>SUBSTRUCTURE
     1 HCR         1 TEMP              0 ****  ****    0 ROOT
