@<TRIPOS>MOLECULE
HCT
   20    19     1     0     0
SMALL
bcc


@<TRIPOS>ATOM
      1 C1          0.3170   -0.9180    0.0760 c         1 HCT      0.898600
      2 C2          1.2010    0.3160    0.2510 c3        1 HCT     -0.144400
      3 C3          1.9470    0.4790    1.5690 c3        1 HCT     -0.152700
      4 C4          3.3800   -0.0410    1.4560 c3        1 HCT     -0.035400
      5 C5          4.0410   -0.2820    2.7960 c3        1 HCT     -0.166400
      6 C6          5.4670   -0.8240    2.7370 c         1 HCT      0.899600
      7 C7          1.9340    1.9600    2.0010 c         1 HCT      0.911600
      8 O1         -0.3200   -1.4380    1.0430 o         1 HCT     -0.902800
      9 O2          0.1700   -1.3790   -1.1080 o         1 HCT     -0.902800
     10 O3          6.2570   -0.5330    1.7860 o         1 HCT     -0.902800
     11 O4          5.8710   -1.5610    3.7000 o         1 HCT     -0.902800
     12 O5          1.6430    2.2520    3.2060 o         1 HCT     -0.899800
     13 O6          2.1820    2.8830    1.1600 o         1 HCT     -0.899800
     14 H2          1.9340    0.3410   -0.5970 hc        1 HCT      0.019200
     15 H2A         0.5220    1.2000    0.1150 hc        1 HCT      0.019200
     16 H3          1.4050   -0.1120    2.3580 hc        1 HCT      0.055700
     17 H4          3.9950    0.6930    0.8720 hc        1 HCT      0.023700
     18 H4A         3.3730   -1.0030    0.8780 hc        1 HCT      0.023700
     19 H5          4.0670    0.6840    3.3650 hc        1 HCT      0.029200
     20 H5A         3.4210   -1.0000    3.3940 hc        1 HCT      0.029200
@<TRIPOS>BOND
     1    1    2 1   
     2    1    8 1   
     3    1    9 1   
     4    2    3 1   
     5    2   14 1   
     6    2   15 1   
     7    3    4 1   
     8    3    7 1   
     9    3   16 1   
    10    4    5 1   
    11    4   17 1   
    12    4   18 1   
    13    5    6 1   
    14    5   19 1   
    15    5   20 1   
    16    6   10 1   
    17    6   11 1   
    18    7   12 1   
    19    7   13 1   
@<TRIPOS>SUBSTRUCTURE
     1 HCT         1 TEMP              0 ****  ****    0 ROOT
