@<TRIPOS>MOLECULE
molecule
   20    19     1     0     0
SMALL
bcc


@<TRIPOS>ATOM
      1 C1           0.0000     0.0000     0.0000 c          1 HCT       0.913600
      2 C2           1.5080     0.0000     0.0000 c3         1 HCT      -0.151400
      3 C3           2.0180     0.0000     1.4420 c3         1 HCT      -0.158700
      4 C4           3.5420    -0.1260     1.4430 c3         1 HCT      -0.037400
      5 C5           4.0430    -0.2510     2.8850 c3         1 HCT      -0.186400
      6 C6           5.5450    -0.3750     2.8860 c          1 HCT       0.892600
      7 C7           1.6190     1.2880     2.1170 c          1 HCT       0.926600
      8 O1          -0.6040    -0.0000     1.0470 o          1 HCT      -0.894800
      9 O2          -0.6710     0.0050    -1.1610 o          1 HCT      -0.894800
     10 O3           6.1520    -0.3640     1.8410 o          1 HCT      -0.913300
     11 O4           6.2070    -0.4980     4.0460 o          1 HCT      -0.913300
     12 O5           1.9620     1.5100     3.3940 o          1 HCT      -0.884300
     13 O6           0.9910     2.1200     1.5050 o          1 HCT      -0.884300
     14 H2           1.8690    -0.8850    -0.5110 hc         1 HCT       0.006700
     15 H2A          1.8690     0.8840    -0.5110 hc         1 HCT       0.006700
     16 H3           1.5860    -0.8370     1.9780 hc         1 HCT       0.037700
     17 H4           3.9780     0.7540     0.9850 hc         1 HCT       0.007200
     18 H4A          3.8330    -1.0060     0.8820 hc         1 HCT       0.007200
     19 H5           3.6070    -1.1310     3.3430 hc         1 HCT       0.061200
     20 H5A          3.7520     0.6290     3.4460 hc         1 HCT       0.061200
@<TRIPOS>BOND
     1     1     2 1
     2     1     8 1
     3     1     9 1
     4     2     3 1
     5     3     4 1
     6     3     7 1
     7     4     5 1
     8     5     6 1
     9     6    10 1
    10     6    11 1
    11     7    12 1
    12     7    13 1
    13     2    14 1
    14     2    15 1
    15     3    16 1
    16     4    17 1
    17     4    18 1
    18     5    19 1
    19     5    20 1
@<TRIPOS>SUBSTRUCTURE
     1 HCT         1 TEMP              0 ****  ****    0 ROOT
