@<TRIPOS>MOLECULE
HCV
   51    50     1     0     0
SMALL
bcc


@<TRIPOS>ATOM
      1 C8           0.0000     0.0000     0.0000 c          1 HCV       0.568100
      2 O1           1.2130     0.0000     0.0000 o          1 HCV      -0.710100
      3 O2          -0.4940    -0.8610     6.9280 o          1 HCV      -0.819300
      4 C9          -0.7540     0.0000     1.3050 c3         1 HCV      -0.092400
      5 C13         -0.2810     0.1210     6.2570 c          1 HCV       0.950600
      6 C12          0.4680    -0.0030     4.9560 c3         1 HCV      -0.106500
      7 C11         -0.5260    -0.0010     3.7930 c3         1 HCV      -0.214400
      8 C10          0.2400    -0.0020     2.4680 c3         1 HCV       0.028600
      9 N2           1.2310    -1.2590     4.9470 nz         1 HCV       0.036400
     10 N1          -0.6730     0.0060    -1.1670 ns         1 HCV      -0.136900
     11 C5           0.0600     0.0070    -2.4360 c3         1 HCV       0.015700
     12 C6           0.4160    -1.4310    -2.8190 c3         1 HCV      -0.210400
     13 C7           1.3910    -2.0060    -1.7890 c3         1 HCV       0.152700
     14 S            1.8140    -3.7100    -2.2420 sh         1 HCV      -0.425900
     15 C4          -0.8010     0.6150    -3.5140 c          1 HCV       0.552100
     16 O           -1.9180     1.0090    -3.2480 o          1 HCV      -0.654100
     17 N           -0.3310     0.7200    -4.7720 ns         1 HCV      -0.107900
     18 C3          -1.1690     1.3110    -5.8190 c3         1 HCV      -0.119300
     19 C1          -0.7280     0.7790    -7.1840 c3         1 HCV      -0.082700
     20 C           -1.6020     1.3960    -8.2780 c3         1 HCV       0.009400
     21 C2           0.7360     1.1530    -7.4300 c3         1 HCV       0.009400
     22 C14         -1.0220     2.8100    -5.7930 c          1 HCV       0.977600
     23 O5          -1.7010     3.5670    -6.6710 o          1 HCV      -0.886800
     24 O4          -0.2930     3.3320    -4.9830 o          1 HCV      -0.886800
     25 H9          -1.3780    -0.8840     1.3610 hc         1 HCV       0.040700
     26 H9A         -1.3760     0.8850     1.3620 hc         1 HCV       0.040700
     27 H12          1.1480     0.8330     4.8500 hx         1 HCV       0.065700
     28 H11          0.1290     0.8470     3.9510 hc         1 HCV       0.100200
     29 H11A        -1.5100     0.4460     3.8680 hc         1 HCV       0.100200
     30 H10          0.8620    -0.8870     2.4110 hc         1 HCV       0.007200
     31 H10A         0.8640     0.8820     2.4110 hc         1 HCV       0.007200
     32 HN2          2.0200    -1.1650     4.3390 hn         1 HCV       0.217133
     33 HN2A         0.6460    -2.0020     4.6220 hn         1 HCV       0.217133
     34 HN1         -1.6740    -0.0150    -1.1670 hn         1 HCV       0.202500
     35 H5           0.9670     0.5880    -2.3280 h1         1 HCV       0.055700
     36 H6           1.1770    -0.6610    -2.8250 hc         1 HCV       0.082200
     37 H6A          0.4240    -1.7750    -3.8470 hc         1 HCV       0.082200
     38 H7           0.9280    -1.9970    -0.8100 h1         1 HCV       0.037700
     39 H7A          2.2910    -1.4040    -1.7680 h1         1 HCV       0.037700
     40 HS           2.8850    -4.0970    -1.5600 hs         1 HCV       0.169800
     41 HN           0.5770     0.3660    -4.9980 hn         1 HCV       0.154500
     42 H3          -2.2050     1.0460    -5.6460 h1         1 HCV       0.057700
     43 H1          -1.3300    -0.1200    -7.1450 hc         1 HCV       0.030700
     44 H           -1.2260     2.3800    -8.5290 hc         1 HCV       0.008033
     45 HA          -1.5770     0.7650    -9.1590 hc         1 HCV       0.008033
     46 HB          -2.6220     1.4780    -7.9220 hc         1 HCV       0.008033
     47 H2           0.9160     1.2250    -8.4960 hc         1 HCV       0.008033
     48 H2A          0.9480     2.1070    -6.9630 hc         1 HCV       0.008033
     49 H2B          1.3790     0.3920    -7.0050 hc         1 HCV       0.008033
     50 H23          1.5470    -1.4630     5.8750 hn         1 HCV       0.217133
     51 O3          -0.7480     1.3170     6.6520 o          1 HCV      -0.819300
@<TRIPOS>BOND
     1     1     2 2   
     2     1     4 1   
     3     1    10 1   
     4     3     5 1   
     5     4     8 1   
     6     4    25 1   
     7     4    26 1   
     8     5     6 1   
     9     5    51 1   
    10     6     7 1   
    11     6     9 1   
    12     6    27 1   
    13     7     8 1   
    14     7    28 1   
    15     7    29 1   
    16     8    30 1   
    17     8    31 1   
    18     9    32 1   
    19     9    33 1   
    20     9    50 1   
    21    10    11 1   
    22    10    34 1   
    23    11    12 1   
    24    11    15 1   
    25    11    35 1   
    26    12    13 1   
    27    12    36 1   
    28    12    37 1   
    29    13    14 1   
    30    13    38 1   
    31    13    39 1   
    32    14    40 1   
    33    15    16 2   
    34    15    17 1   
    35    17    18 1   
    36    17    41 1   
    37    18    19 1   
    38    18    22 1   
    39    18    42 1   
    40    19    20 1   
    41    19    21 1   
    42    19    43 1   
    43    20    44 1   
    44    20    45 1   
    45    20    46 1   
    46    21    47 1   
    47    21    48 1   
    48    21    49 1   
    49    22    23 1   
    50    22    24 1   
@<TRIPOS>SUBSTRUCTURE
     1 HCV         1 TEMP              0 ****  ****    0 ROOT
