@<TRIPOS>MOLECULE
HCW
   62    65     1     0     0
SMALL
bcc


@<TRIPOS>ATOM
      1 OBH          0.0000     0.0000     0.0000 o          1 HCW      -0.685100
      2 CAV          1.2160     0.0000     0.0000 c          1 HCW       0.553100
      3 NAF          1.8900     0.0000     1.1670 ns         1 HCW      -0.049100
      4 CAW          1.1960     0.1080     2.3750 ca         1 HCW      -0.072400
      5 CBB          1.6680    -0.5430     3.5090 ca         1 HCW      -0.124000
      6 CBA          0.9870    -0.4380     4.7020 ca         1 HCW      -0.065750
      7 CAX          0.0350     0.8740     2.4420 ca         1 HCW      -0.124000
      8 CAY         -0.6520     0.9830     3.6310 ca         1 HCW      -0.065750
      9 CAZ         -0.1820     0.3250     4.7700 ca         1 HCW      -0.134900
     10 CBC         -0.9150     0.4390     6.0440 ce         1 HCW       0.354900
     11 CBD         -2.1750     1.2620     6.1180 c3         1 HCW      -0.068400
     12 NAG         -0.4750    -0.1700     7.1030 n2         1 HCW      -0.425400
     13 NAH         -1.1710    -0.0610     8.3140 nu         1 HCW      -0.170300
     14 CBE         -0.7050    -0.7060     9.4370 c2         1 HCW       0.558100
     15 NAI         -1.3380    -0.6400    10.6490 nu         1 HCW      -0.562700
     16 CBF         -0.5710    -1.4420    11.6160 c3         1 HCW       0.128800
     17 CBG          0.6050    -1.9820    10.7770 c3         1 HCW       0.163800
     18 NAJ          0.3660    -1.4300     9.4360 n2         1 HCW      -0.681900
     19 NAE          1.8890    -0.0070    -1.1670 ns         1 HCW      -0.049100
     20 CAS          1.1930     0.0850    -2.3770 ca         1 HCW      -0.072400
     21 CAR          1.7440     0.7890    -3.4420 ca         1 HCW      -0.124000
     22 CAQ          1.0620     0.8820    -4.6350 ca         1 HCW      -0.065750
     23 CAP         -0.1860     0.2660    -4.7740 ca         1 HCW      -0.134900
     24 CAU         -0.7350    -0.4400    -3.7010 ca         1 HCW      -0.065750
     25 CAT         -0.0450    -0.5330    -2.5120 ca         1 HCW      -0.124000
     26 CAN         -0.9200     0.3640    -6.0480 ce         1 HCW       0.354900
     27 CAO         -2.2640    -0.3000    -6.1960 c3         1 HCW      -0.068400
     28 NAD         -0.4070     1.0220    -7.0440 n2         1 HCW      -0.425400
     29 NAC         -1.1050     1.1140    -8.2550 nu         1 HCW      -0.170300
     30 CAM         -0.5620     1.8120    -9.3090 c2         1 HCW       0.558100
     31 NAB          0.5870     2.4020    -9.2450 n2         1 HCW      -0.681900
     32 CAL          0.8910     3.0570   -10.5240 c3         1 HCW       0.163800
     33 CAK         -0.3330     2.7410   -11.4060 c3         1 HCW       0.128800
     34 NAA         -1.1890     1.9350   -10.5200 nu         1 HCW      -0.562700
     35 HAF          2.8890    -0.0600     1.1680 hn         1 HCW       0.161500
     36 HAE          2.8850    -0.1100    -1.1700 hn         1 HCW       0.161500
     37 HBB          2.5750    -1.1340     3.4540 ha         1 HCW       0.126000
     38 HAX         -0.3280     1.3840     1.5580 ha         1 HCW       0.126000
     39 HBA          1.3550    -0.9480     5.5840 ha         1 HCW       0.122500
     40 HAY         -1.5560     1.5770     3.6820 ha         1 HCW       0.122500
     41 HBD1        -2.0560     2.0400     6.8620 hc         1 HCW       0.018867
     42 HBD2        -2.3700     1.7120     5.1520 hc         1 HCW       0.018867
     43 HBD3        -3.0070     0.6240     6.3930 hc         1 HCW       0.018867
     44 HAH         -2.0110     0.4810     8.3620 hn         1 HCW       0.272800
     45 HAI         -2.1790    -0.1340    10.8440 hn         1 HCW       0.305800
     46 HAR          2.7110     1.2650    -3.3330 ha         1 HCW       0.126000
     47 HAT         -0.4700    -1.0810    -1.6800 ha         1 HCW       0.126000
     48 HAQ          1.4910     1.4300    -5.4640 ha         1 HCW       0.122500
     49 HAU         -1.7010    -0.9200    -3.8050 ha         1 HCW       0.122500
     50 HAO1        -2.4950    -0.8540    -5.2950 hc         1 HCW       0.018867
     51 HAO2        -2.2410    -0.9780    -7.0410 hc         1 HCW       0.018867
     52 HAO3        -3.0240     0.4550    -6.3600 hc         1 HCW       0.018867
     53 HAC         -2.0140     0.7030    -8.3420 hn         1 HCW       0.272800
     54 HAL1         1.7340     2.5310   -10.9540 h1         1 HCW       0.031450
     55 HAL2         0.8800     4.1250   -10.3410 h1         1 HCW       0.031450
     56 HAK1         0.0080     2.0860   -12.1990 h1         1 HCW       0.025700
     57 HAK2        -0.8490     3.6770   -11.5810 h1         1 HCW       0.025700
     58 HBF1        -1.1870    -2.2920    11.8840 h1         1 HCW       0.025700
     59 HBF2        -0.1530    -0.7520    12.3400 h1         1 HCW       0.025700
     60 HBG1         1.5050    -1.5130    11.1560 h1         1 HCW       0.031450
     61 HBG2         0.4740    -3.0550    10.7050 h1         1 HCW       0.031450
     62 HAA         -2.0800     1.5470   -10.7600 hn         1 HCW       0.305800
@<TRIPOS>BOND
     1     1     2 2   
     2     2     3 1   
     3     2    19 1   
     4     3     4 1   
     5     3    35 1   
     6     4     5 ar  
     7     4     7 ar  
     8     5     6 ar  
     9     5    37 1   
    10     6     9 ar  
    11     6    39 1   
    12     7     8 ar  
    13     7    38 1   
    14     8     9 ar  
    15     8    40 1   
    16     9    10 1   
    17    10    11 1   
    18    10    12 2   
    19    11    41 1   
    20    11    42 1   
    21    11    43 1   
    22    12    13 1   
    23    13    14 1   
    24    13    44 1   
    25    14    15 1   
    26    14    18 2   
    27    15    16 1   
    28    15    45 1   
    29    16    17 1   
    30    16    58 1   
    31    16    59 1   
    32    17    18 1   
    33    17    60 1   
    34    17    61 1   
    35    19    20 1   
    36    19    36 1   
    37    20    21 ar  
    38    20    25 ar  
    39    21    22 ar  
    40    21    46 1   
    41    22    23 ar  
    42    22    48 1   
    43    23    24 ar  
    44    23    26 1   
    45    24    25 ar  
    46    24    49 1   
    47    25    47 1   
    48    26    27 1   
    49    26    28 2   
    50    27    50 1   
    51    27    51 1   
    52    27    52 1   
    53    28    29 1   
    54    29    30 1   
    55    29    53 1   
    56    30    31 2   
    57    30    34 1   
    58    31    32 1   
    59    32    33 1   
    60    32    54 1   
    61    32    55 1   
    62    33    34 1   
    63    33    56 1   
    64    33    57 1   
    65    34    62 1   
@<TRIPOS>SUBSTRUCTURE
     1 HCW         1 TEMP              0 ****  ****    0 ROOT
