@<TRIPOS>MOLECULE
molecule
   24    25     1     0     0
SMALL
bcc


@<TRIPOS>ATOM
      1 P            0.0000     0.0000     0.0000 p5         1 HCX       1.097800
      2 O1P          1.5060     0.0000     0.0000 o          1 HCX      -0.787000
      3 O2P         -0.5960     0.0000     1.5130 o          1 HCX      -0.787000
      4 O5'         -0.6090     1.3890    -0.5900 os         1 HCX      -0.558200
      5 C4          -1.7310     3.8130    -1.6260 cx         1 HCX      -0.123700
      6 C7          -1.8740     4.7600    -2.7890 cx         1 HCX      -0.121400
      7 C2'         -0.8840     2.4000    -3.4160 c3         1 HCX      -0.047400
      8 C5'         -1.9830     1.6610    -0.3860 c3         1 HCX       0.217400
      9 C4'         -2.4880     2.5060    -1.5530 c3         1 HCX      -0.057700
     10 C1'         -0.7630     3.7450    -2.7580 cx         1 HCX      -0.136700
     11 C3'         -2.2080     1.8090    -2.9050 c3         1 HCX       0.142100
     12 O3'         -3.2400     2.1220    -3.8370 oh         1 HCX      -0.619800
     13 H72         -2.6870     4.5440    -3.4720 hc         1 HCX       0.070200
     14 H2'1        -0.0550     1.7660    -3.1250 hc         1 HCX       0.054700
     15 H2'2        -0.9170     2.5120    -4.4930 hc         1 HCX       0.054700
     16 H5'1        -2.5370     0.7310    -0.3420 h1         1 HCX       0.030200
     17 H5'2        -2.1120     2.2060     0.5420 h1         1 HCX       0.030200
     18 H4'         -3.5490     2.6980    -1.4480 hc         1 HCX       0.053700
     19 H1'          0.2210     4.0950    -2.4730 hc         1 HCX       0.079700
     20 H1          -2.1190     0.7380    -2.7690 h1         1 HCX       0.040700
     21 H3'         -3.5900     1.3240    -4.1980 ho         1 HCX       0.388000
     22 HP1         -0.4760    -1.1200    -0.7020 hp         1 HCX      -0.179400
     23 H4          -1.2740     4.2000    -0.7230 hc         1 HCX       0.087700
     24 H71         -1.5780     5.7850    -2.5980 hc         1 HCX       0.070200
@<TRIPOS>BOND
     1     1     2 1
     2     1     3 1
     3     1     4 1
     4     4     8 1
     5     5     6 1
     6     5     9 1
     7     5    10 1
     8     5    23 1
     9     6    10 1
    10     6    24 1
    11     6    13 1
    12     7    10 1
    13     7    11 1
    14     7    14 1
    15     7    15 1
    16     8     9 1
    17     8    16 1
    18     8    17 1
    19     9    11 1
    20     9    18 1
    21    10    19 1
    22    11    12 1
    23    11    20 1
    24    12    21 1
    25    22     1 1
@<TRIPOS>SUBSTRUCTURE
     1 HCX         1 TEMP              0 ****  ****    0 ROOT
