@<TRIPOS>MOLECULE
HCX
   24    25     1     0     0
SMALL
bcc


@<TRIPOS>ATOM
      1 P          -0.7300   -0.3800   -0.0120 p5        1 HCX      1.344800
      2 O1P        -1.0260   -0.7290    1.3900 o         1 HCX     -0.859500
      3 O2P        -1.6350   -0.7390   -1.1330 o         1 HCX     -0.859500
      4 O5'        -0.5790    1.2770   -0.1090 os        1 HCX     -0.584200
      5 C4         -1.2720    3.9030   -1.7460 cx        1 HCX     -0.095700
      6 C7         -1.8370    4.8750   -2.7480 cx        1 HCX     -0.141400
      7 C2'        -1.2140    2.6260   -3.8470 c3        1 HCX     -0.058400
      8 C5'        -1.7770    1.9810   -0.1540 c3        1 HCX      0.211400
      9 C4'        -2.0600    2.6360   -1.5070 c3        1 HCX     -0.097700
     10 C1'        -0.7720    3.9040   -3.1830 cx        1 HCX     -0.132700
     11 C3'        -1.7200    1.7180   -2.7090 c3        1 HCX      0.158100
     12 O3'        -2.8590    1.0100   -3.1510 oh        1 HCX     -0.640800
     13 H72        -2.8710    4.7340   -3.1090 hc        1 HCX      0.056200
     14 H2'1       -0.3650    2.1360   -4.3810 hc        1 HCX      0.040700
     15 H2'2       -2.0320    2.8110   -4.5860 hc        1 HCX      0.040700
     16 H5'1       -2.6330    1.2860    0.0850 h1        1 HCX      0.015700
     17 H5'2       -1.7360    2.7920    0.6300 h1        1 HCX      0.015700
     18 H4'        -3.1600    2.8690   -1.5370 hc        1 HCX      0.048700
     19 H1'         0.2250    4.2780   -3.4570 hc        1 HCX      0.068700
     20 H1         -0.9170    0.9920   -2.3890 h1        1 HCX      0.080700
     21 H3'        -2.8780    0.1890   -2.6280 ho        1 HCX      0.457000
     22 HP1         0.5190   -0.6720   -0.3180 hp        1 HCX     -0.211400
     23 H4         -0.6540    4.2600   -0.9090 hc        1 HCX      0.085700
     24 H71        -1.5690    5.9420   -2.6580 hc        1 HCX      0.056200
@<TRIPOS>BOND
     1    1    2 1   
     2    1    3 1   
     3    1    4 1   
     4    1   22 1   
     5    4    8 1   
     6    5    6 1   
     7    5    9 1   
     8    5   10 1   
     9    5   23 1   
    10    6   10 1   
    11    6   13 1   
    12    6   24 1   
    13    7   10 1   
    14    7   11 1   
    15    7   14 1   
    16    7   15 1   
    17    8    9 1   
    18    8   16 1   
    19    8   17 1   
    20    9   11 1   
    21    9   18 1   
    22   10   19 1   
    23   11   12 1   
    24   11   20 1   
    25   12   21 1   
@<TRIPOS>SUBSTRUCTURE
     1 HCX         1 TEMP              0 ****  ****    0 ROOT
