@<TRIPOS>MOLECULE
molecule
   56    59     1     0     0
SMALL
bcc


@<TRIPOS>ATOM
      1 C1           0.0000     0.0000     0.0000 c3         1 HCY      -0.065400
      2 C2           1.5280     0.0000     0.0000 c3         1 HCY      -0.180400
      3 C3           1.9870     0.0000     1.4460 c          1 HCY       0.570300
      4 C4           1.4180     1.0500     2.3030 ce         1 HCY      -0.261200
      5 C5           0.2400     1.5770     1.9820 c2         1 HCY      -0.044400
      6 C6          -0.3260     2.6920     2.8450 c3         1 HCY      -0.049200
      7 C7          -0.6590     3.8690     1.9220 c3         1 HCY      -0.074400
      8 C8          -1.6000     3.4080     0.8080 c3         1 HCY      -0.066700
      9 C9          -0.9030     2.3510    -0.0660 c3         1 HCY      -0.044700
     10 C10         -0.5760     1.1390     0.8050 c3         1 HCY      -0.027800
     11 C12         -2.2490     3.1240    -2.0680 c3         1 HCY      -0.080400
     12 C11         -1.7840     1.9200    -1.2340 c3         1 HCY       0.145100
     13 C13         -2.9860     4.0620    -1.1300 c3         1 HCY      -0.045000
     14 C14         -1.9530     4.5780    -0.0920 c3         1 HCY      -0.066700
     15 C15         -2.7260     5.7230     0.5720 c3         1 HCY      -0.071400
     16 C16         -3.4240     6.4140    -0.6300 c3         1 HCY      -0.107400
     17 C17         -3.5350     5.3440    -1.7450 c3         1 HCY       0.065800
     18 C18         -4.1060     3.3050    -0.4150 c3         1 HCY      -0.099100
     19 C19         -1.9150     0.6490     1.3610 c3         1 HCY      -0.086100
     20 C20         -4.9760     5.1560    -2.1460 c          1 HCY       0.549100
     21 C21         -5.3140     4.5940    -3.5030 c3         1 HCY       0.047400
     22 O1           2.7770    -0.8180     1.8700 o          1 HCY      -0.522100
     23 O2          -2.9290     1.2330    -0.7250 oh         1 HCY      -0.601800
     24 O3          -2.7520     5.7270    -2.8770 oh         1 HCY      -0.598800
     25 O4          -5.8600     5.4550    -1.3790 o          1 HCY      -0.488100
     26 O5          -6.7330     4.5120    -3.6450 oh         1 HCY      -0.587800
     27 H4           2.0270     1.5110     3.0710 ha         1 HCY       0.151000
     28 H2C1         1.8940    -0.8880    -0.5010 hc         1 HCY       0.067200
     29 H2C2         1.8940     0.8880    -0.5010 hc         1 HCY       0.067200
     30 H6C1         0.4120     2.9980     3.5770 hc         1 HCY       0.057200
     31 H6C2        -1.2250     2.3490     3.3420 hc         1 HCY       0.057200
     32 H7C1        -1.1410     4.6500     2.4980 hc         1 HCY       0.046700
     33 H7C2         0.2550     4.2510     1.4840 hc         1 HCY       0.046700
     34 H8          -2.5030     2.9910     1.2390 hc         1 HCY       0.085700
     35 H1C1        -0.3490     0.0840    -1.0220 hc         1 HCY       0.052200
     36 H1C2        -0.3490    -0.9360     0.4200 hc         1 HCY       0.052200
     37 H191        -1.7510     0.1430     2.3050 hc         1 HCY       0.045033
     38 H192        -2.5730     1.4960     1.5150 hc         1 HCY       0.045033
     39 H193        -2.3690    -0.0380     0.6570 hc         1 HCY       0.045033
     40 H9           0.0200     2.7660    -0.4540 hc         1 HCY       0.060700
     41 H11         -1.2190     1.2500    -1.8710 h1         1 HCY       0.035700
     42 H14         -1.0690     4.9550    -0.5920 hc         1 HCY       0.063700
     43 H2          -3.2120     0.5870    -1.3510 ho         1 HCY       0.394000
     44 H121        -1.3910     3.6300    -2.4930 hc         1 HCY       0.055200
     45 H122        -2.9160     2.7920    -2.8540 hc         1 HCY       0.055200
     46 H181        -3.6780     2.6470     0.3320 hc         1 HCY       0.055367
     47 H182        -4.7700     4.0130     0.0660 hc         1 HCY       0.055367
     48 H183        -4.6640     2.7190    -1.1350 hc         1 HCY       0.055367
     49 H151        -2.0450     6.4080     1.0640 hc         1 HCY       0.053200
     50 H152        -3.4590     5.3350     1.2680 hc         1 HCY       0.053200
     51 H161        -4.4120     6.7510    -0.3400 hc         1 HCY       0.063700
     52 H162        -2.8270     7.2490    -0.9750 hc         1 HCY       0.063700
     53 H3          -2.8530     6.6510    -3.0330 ho         1 HCY       0.408000
     54 H211        -4.9110     5.2420    -4.2720 h1         1 HCY       0.047700
     55 H212        -4.8830     3.6050    -3.6020 h1         1 HCY       0.047700
     56 H5          -6.9500     4.3530    -4.5490 ho         1 HCY       0.403000
@<TRIPOS>BOND
     1    22     3 2
     2     3     4 1
     3     3     2 1
     4     4     5 2
     5     5     6 1
     6     5    10 1
     7     6     7 1
     8     7     8 1
     9     2     1 1
    10     1    10 1
    11    10    19 1
    12    10     9 1
    13     9     8 1
    14     9    12 1
    15     8    14 1
    16    12    23 1
    17    12    11 1
    18    11    13 1
    19    13    18 1
    20    13    14 1
    21    13    17 1
    22    14    15 1
    23    15    16 1
    24    16    17 1
    25    17    24 1
    26    17    20 1
    27    20    25 2
    28    20    21 1
    29    21    26 1
    30     4    27 1
    31     2    28 1
    32     2    29 1
    33     6    30 1
    34     6    31 1
    35     7    32 1
    36     7    33 1
    37     8    34 1
    38     1    35 1
    39     1    36 1
    40    19    37 1
    41    19    38 1
    42    19    39 1
    43     9    40 1
    44    12    41 1
    45    14    42 1
    46    23    43 1
    47    11    44 1
    48    11    45 1
    49    18    46 1
    50    18    47 1
    51    18    48 1
    52    15    49 1
    53    15    50 1
    54    16    51 1
    55    16    52 1
    56    24    53 1
    57    21    54 1
    58    21    55 1
    59    26    56 1
@<TRIPOS>SUBSTRUCTURE
     1 HCY         1 TEMP              0 ****  ****    0 ROOT
