@<TRIPOS>MOLECULE
HCY
   56    59     1     0     0
SMALL
bcc


@<TRIPOS>ATOM
      1 C1          0.0300   -0.1310    0.1570 c3        1 HCY     -0.072400
      2 C2          1.4460    0.2000   -0.2500 c3        1 HCY     -0.183400
      3 C3          2.2870    0.4850    0.9640 c         1 HCY      0.570300
      4 C4          1.6310    1.3290    1.9720 ce        1 HCY     -0.264200
      5 C5          0.3130    1.5810    1.9620 c2        1 HCY     -0.033400
      6 C6         -0.2900    2.5970    2.8720 c3        1 HCY     -0.055200
      7 C7         -0.8410    3.7370    2.0360 c3        1 HCY     -0.070400
      8 C8         -1.7940    3.2460    0.9570 c3        1 HCY     -0.049700
      9 C9         -1.1760    2.1220    0.1040 c3        1 HCY     -0.037700
     10 C10        -0.6600    0.9620    0.9850 c3        1 HCY     -0.005800
     11 C12        -2.6220    2.8770   -1.8750 c3        1 HCY     -0.101400
     12 C11        -2.1110    1.6940   -1.0400 c3        1 HCY      0.152100
     13 C13        -3.2160    3.9760   -1.0130 c3        1 HCY     -0.024000
     14 C14        -2.1450    4.3870    0.0210 c3        1 HCY     -0.065700
     15 C15        -2.6660    5.6940    0.6000 c3        1 HCY     -0.070400
     16 C16        -3.3480    6.3890   -0.5810 c3        1 HCY     -0.102400
     17 C17        -3.4720    5.3460   -1.7230 c3        1 HCY      0.048800
     18 C18        -4.5250    3.5220   -0.3880 c3        1 HCY     -0.110100
     19 C19        -1.7830    0.2740    1.7610 c3        1 HCY     -0.081100
     20 C20        -4.8360    5.4060   -2.4070 c         1 HCY      0.547100
     21 C21        -4.8160    4.9750   -3.8550 c3        1 HCY      0.035400
     22 O1          3.4480    0.0790    1.0800 o         1 HCY     -0.535100
     23 O2         -3.1740    0.9160   -0.5060 oh        1 HCY     -0.600800
     24 O3         -2.4520    5.5170   -2.7000 oh        1 HCY     -0.593800
     25 O4         -5.8500    5.7920   -1.8280 o         1 HCY     -0.488100
     26 O5         -6.1420    4.6990   -4.2640 oh        1 HCY     -0.576800
     27 H4          2.3000    1.7760    2.7260 ha        1 HCY      0.148000
     28 H2C1        1.4670    1.1080   -0.9100 hc        1 HCY      0.068700
     29 H2C2        1.8870   -0.6520   -0.8310 hc        1 HCY      0.068700
     30 H6C1       -1.1120    2.1280    3.4770 hc        1 HCY      0.057200
     31 H6C2        0.4720    2.9940    3.5930 hc        1 HCY      0.057200
     32 H7C1       -1.3830    4.4600    2.7000 hc        1 HCY      0.046700
     33 H7C2        0.0100    4.2920    1.5600 hc        1 HCY      0.046700
     34 H8         -2.7270    2.8600    1.4520 hc        1 HCY      0.070700
     35 H1C1       -0.5820   -0.3590   -0.7520 hc        1 HCY      0.053700
     36 H1C2        0.0540   -1.0730    0.7730 hc        1 HCY      0.053700
     37 H191       -1.3540   -0.3280    2.5980 hc        1 HCY      0.045033
     38 H192       -2.3510   -0.4090    1.0820 hc        1 HCY      0.045033
     39 H193       -2.5020    1.0130    2.1830 hc        1 HCY      0.045033
     40 H9         -0.2670    2.5530   -0.4110 hc        1 HCY      0.052700
     41 H11        -1.5270    1.0330   -1.7480 h1        1 HCY      0.031700
     42 H14        -1.2090    4.6430   -0.5620 hc        1 HCY      0.058700
     43 H2         -3.8670    0.8800   -1.1770 ho        1 HCY      0.402000
     44 H121       -1.7650    3.2930   -2.4670 hc        1 HCY      0.057700
     45 H122       -3.3890    2.5030   -2.6030 hc        1 HCY      0.057700
     46 H181       -5.2370    3.2000   -1.1880 hc        1 HCY      0.053033
     47 H182       -4.3640    2.6600    0.3030 hc        1 HCY      0.053033
     48 H183       -4.9970    4.3590    0.1840 hc        1 HCY      0.053033
     49 H151       -3.3970    5.5050    1.4250 hc        1 HCY      0.050200
     50 H152       -1.8350    6.3150    1.0130 hc        1 HCY      0.050200
     51 H161       -2.7440    7.2640   -0.9270 hc        1 HCY      0.062700
     52 H162       -4.3640    6.7570   -0.2890 hc        1 HCY      0.062700
     53 H3         -2.4170    6.4570   -2.9140 ho        1 HCY      0.406000
     54 H211       -4.3680    5.8060   -4.4650 h1        1 HCY      0.052200
     55 H212       -4.1760    4.0570   -3.9630 h1        1 HCY      0.052200
     56 H5         -6.1130    4.5820   -5.2210 ho        1 HCY      0.404000
@<TRIPOS>BOND
     1    1    2 1   
     2    1   10 1   
     3    1   35 1   
     4    1   36 1   
     5    2    3 1   
     6    2   28 1   
     7    2   29 1   
     8    3    4 1   
     9    3   22 2   
    10    4    5 2   
    11    4   27 1   
    12    5    6 1   
    13    5   10 1   
    14    6    7 1   
    15    6   30 1   
    16    6   31 1   
    17    7    8 1   
    18    7   32 1   
    19    7   33 1   
    20    8    9 1   
    21    8   14 1   
    22    8   34 1   
    23    9   10 1   
    24    9   12 1   
    25    9   40 1   
    26   10   19 1   
    27   11   12 1   
    28   11   13 1   
    29   11   44 1   
    30   11   45 1   
    31   12   23 1   
    32   12   41 1   
    33   13   14 1   
    34   13   17 1   
    35   13   18 1   
    36   14   15 1   
    37   14   42 1   
    38   15   16 1   
    39   15   49 1   
    40   15   50 1   
    41   16   17 1   
    42   16   51 1   
    43   16   52 1   
    44   17   20 1   
    45   17   24 1   
    46   18   46 1   
    47   18   47 1   
    48   18   48 1   
    49   19   37 1   
    50   19   38 1   
    51   19   39 1   
    52   20   21 1   
    53   20   25 2   
    54   21   26 1   
    55   21   54 1   
    56   21   55 1   
    57   23   43 1   
    58   24   53 1   
    59   26   56 1   
@<TRIPOS>SUBSTRUCTURE
     1 HCY         1 TEMP              0 ****  ****    0 ROOT
