@<TRIPOS>MOLECULE
HCZ
   26    27     1     0     0
SMALL
bcc


@<TRIPOS>ATOM
      1 N01          0.0000     0.0000     0.0000 nz         1 HCZ      -0.146500
      2 S02          1.6570     0.0000     0.0000 sy         1 HCZ       0.947200
      3 O03          2.0570     0.0000     1.3630 o          1 HCZ      -0.491800
      4 O04          2.0580    -0.9980    -0.9290 o          1 HCZ      -0.491800
      5 C05          2.1780     1.5440    -0.6710 ca         1 HCZ      -0.301500
      6 C06          2.8660     2.4460     0.1170 ca         1 HCZ       0.203000
      7 C07          3.2740     3.6540    -0.4090 ca         1 HCZ      -0.229500
      8 C08          3.0140     3.9700    -1.7350 ca         1 HCZ       0.199600
      9 C09          2.3140     3.0590    -2.5240 ca         1 HCZ      -0.179000
     10 C10          1.9050     1.8530    -1.9930 ca         1 HCZ       0.093400
     11 Cl11         1.0390     0.7210    -2.9850 cl         1 HCZ       0.021600
     12 N12          3.4500     5.1610    -2.3120 nu         1 HCZ      -0.367600
     13 C13          3.7690     6.3570    -1.5370 c3         1 HCZ       0.391000
     14 N14          4.6850     5.9820    -0.4410 n7         1 HCZ      -0.568100
     15 S15          4.1210     4.8190     0.6150 sy         1 HCZ       1.048200
     16 O16          3.1360     5.4460     1.4250 o          1 HCZ      -0.552800
     17 O17          5.2610     4.1530     1.1390 o          1 HCZ      -0.552800
     18 HN01        -0.3340    -0.6940     0.6390 hn         1 HCZ       0.316467
     19 HN0A        -0.3340    -0.2070    -0.9210 hn         1 HCZ       0.316467
     20 H06          3.0910     2.2020     1.1490 ha         1 HCZ       0.143000
     21 H09          2.0970     3.2950    -3.5590 ha         1 HCZ       0.145000
     22 HN12         2.8430     5.4070    -3.0690 hn         1 HCZ       0.285800
     23 H13          4.2500     7.0870    -2.1770 h2         1 HCZ       0.037200
     24 H13A         2.8590     6.7740    -1.1210 h2         1 HCZ       0.037200
     25 HN14         5.5890     6.3990    -0.3380 hn         1 HCZ       0.378800
     26 H013        -0.3340     0.9000     0.2840 hn         1 HCZ       0.316467
@<TRIPOS>BOND
     1     1     2 1   
     2     1    18 1   
     3     1    19 1   
     4     1    26 1   
     5     2     3 2   
     6     2     4 2   
     7     2     5 1   
     8     5     6 ar  
     9     5    10 ar  
    10     6     7 ar  
    11     6    20 1   
    12     7     8 ar  
    13     7    15 1   
    14     8     9 ar  
    15     8    12 1   
    16     9    10 ar  
    17     9    21 1   
    18    10    11 1   
    19    12    13 1   
    20    12    22 1   
    21    13    14 1   
    22    13    23 1   
    23    13    24 1   
    24    14    15 1   
    25    14    25 1   
    26    15    16 2   
    27    15    17 2   
@<TRIPOS>SUBSTRUCTURE
     1 HCZ         1 TEMP              0 ****  ****    0 ROOT
