@<TRIPOS>MOLECULE
molecule
   67    71     1     0     0
SMALL
bcc


@<TRIPOS>ATOM
      1 O1           0.0000     0.0000     0.0000 o          1 HD1      -0.598100
      2 C14          1.2160     0.0000     0.0000 c          1 HD1       0.678700
      3 N4           1.8900     0.0000     1.1680 ns         1 HD1      -0.579900
      4 C15          1.1580    -0.0010     2.4360 c3         1 HD1       0.128700
      5 C20          2.0340    -0.6110     3.5320 c3         1 HD1      -0.077700
      6 C19          3.3130     0.2170     3.6810 c3         1 HD1      -0.071900
      7 C21          1.2700    -0.6120     4.8570 c3         1 HD1      -0.074900
      8 C22          0.9050     0.8260     5.2360 c3         1 HD1       0.154800
      9 C23          2.1830     1.6530     5.3860 c3         1 HD1      -0.098400
     10 C18          2.9480     1.6540     4.0600 c3         1 HD1      -0.065700
     11 C17          2.0710     2.2630     2.9650 c3         1 HD1      -0.071900
     12 O2           0.1900     0.8250     6.4740 oh         1 HD1      -0.600800
     13 C24          0.0280     1.4350     4.1410 c3         1 HD1      -0.074900
     14 C16          0.7930     1.4360     2.8150 c3         1 HD1      -0.077700
     15 C5           1.9520    -0.0050    -1.2730 ca         1 HD1      -0.307900
     16 C6           3.3550    -0.0050    -1.2860 ca         1 HD1      -0.034000
     17 C7           3.9980    -0.0110    -2.4940 ca         1 HD1      -0.298300
     18 C8           3.2520    -0.0160    -3.6710 ca         1 HD1       0.657200
     19 N2           3.9060    -0.0220    -4.8920 nh         1 HD1      -0.701300
     20 C12          2.9450    -0.0270    -6.0040 c3         1 HD1       0.172800
     21 C11          3.7050     0.0470    -7.3310 c3         1 HD1       0.158300
     22 N3           4.6260    -1.0930    -7.4300 n3         1 HD1      -0.734600
     23 C13          5.3200    -1.1000    -8.7240 c3         1 HD1       0.153100
     24 C10          5.5860    -1.0880    -6.3170 c3         1 HD1       0.158300
     25 C9           4.8280    -1.1620    -4.9900 c3         1 HD1       0.172800
     26 N1           1.9270    -0.0160    -3.6420 nb         1 HD1      -0.766000
     27 C4           1.2600    -0.0170    -2.4970 ca         1 HD1       0.605600
     28 S1          -0.5020    -0.0250    -2.5090 ss         1 HD1      -0.187400
     29 C3          -0.8040    -0.0390    -4.2950 c3         1 HD1      -0.050300
     30 C2          -2.3120    -0.0480    -4.5560 c3         1 HD1      -0.071400
     31 C1          -2.5670    -0.0600    -6.0650 c3         1 HD1      -0.089100
     32 H4           2.8900    -0.0490     1.1680 hn         1 HD1       0.313500
     33 H15          0.2530    -0.5870     2.3300 h1         1 HD1       0.083700
     34 H20          2.2920    -1.6280     3.2640 hc         1 HD1       0.067200
     35 H16          0.1720     1.8680     2.0400 hc         1 HD1       0.067200
     36 H191         3.9340    -0.2140     4.4560 hc         1 HD1       0.042450
     37 H192         3.8540     0.2180     2.7420 hc         1 HD1       0.042450
     38 H211         1.8910    -1.0430     5.6320 hc         1 HD1       0.054700
     39 H212         0.3650    -1.1980     4.7510 hc         1 HD1       0.054700
     40 H18          3.8530     2.2400     4.1660 hc         1 HD1       0.050700
     41 H231         2.8040     1.2210     6.1610 hc         1 HD1       0.048200
     42 H232         1.9250     2.6700     5.6540 hc         1 HD1       0.048200
     43 H2           0.7310     0.4510     7.1490 ho         1 HD1       0.401000
     44 H241        -0.2310     2.4530     4.4090 hc         1 HD1       0.054700
     45 H242        -0.8770     0.8490     4.0350 hc         1 HD1       0.054700
     46 H171         1.8140     3.2810     3.2340 hc         1 HD1       0.042450
     47 H172         2.6130     2.2640     2.0270 hc         1 HD1       0.042450
     48 H6           3.9160    -0.0010    -0.3600 ha         1 HD1       0.132000
     49 H7           5.0810    -0.0110    -2.5340 ha         1 HD1       0.145000
     50 H121         2.2880     0.8300    -5.9160 h1         1 HD1       0.057200
     51 H122         2.3630    -0.9400    -5.9730 h1         1 HD1       0.057200
     52 H91C         5.5340    -1.1260    -4.1690 h1         1 HD1       0.057200
     53 H92C         4.2630    -2.0860    -4.9480 h1         1 HD1       0.057200
     54 H111         3.0000     0.0130    -8.1530 h1         1 HD1       0.043700
     55 H112         4.2700     0.9710    -7.3720 h1         1 HD1       0.043700
     56 H131         4.5900    -1.1370    -9.5240 h1         1 HD1       0.033367
     57 H132         5.9650    -1.9670    -8.7830 h1         1 HD1       0.033367
     58 H133         5.9140    -0.1990    -8.8190 h1         1 HD1       0.033367
     59 H101         6.2430    -1.9450    -6.4050 h1         1 HD1       0.043700
     60 H102         6.1690    -0.1750    -6.3490 h1         1 HD1       0.043700
     61 H31C        -0.3650     0.8440    -4.7420 h1         1 HD1       0.069200
     62 H32C        -0.3570    -0.9250    -4.7300 h1         1 HD1       0.069200
     63 H21C        -2.7590     0.8370    -4.1210 hc         1 HD1       0.049700
     64 H22C        -2.7500    -0.9320    -4.1090 hc         1 HD1       0.049700
     65 H11C        -2.1280     0.8240    -6.5120 hc         1 HD1       0.034700
     66 H12C        -3.6340    -0.0670    -6.2510 hc         1 HD1       0.034700
     67 H13C        -2.1190    -0.9450    -6.5000 hc         1 HD1       0.034700
@<TRIPOS>BOND
     1     1     2 2
     2     2     3 1
     3     2    15 1
     4     3     4 1
     5     4     5 1
     6     4    14 1
     7     5     6 1
     8     5     7 1
     9     6    10 1
    10     7     8 1
    11     8     9 1
    12     8    12 1
    13     8    13 1
    14     9    10 1
    15    10    11 1
    16    11    14 1
    17    13    14 1
    18    15    16 ar
    19    15    27 ar
    20    16    17 ar
    21    17    18 ar
    22    18    19 1
    23    18    26 ar
    24    19    20 1
    25    19    25 1
    26    20    21 1
    27    21    22 1
    28    22    23 1
    29    22    24 1
    30    24    25 1
    31    26    27 ar
    32    27    28 1
    33    28    29 1
    34    29    30 1
    35    30    31 1
    36     3    32 1
    37     4    33 1
    38     5    34 1
    39    14    35 1
    40     6    36 1
    41     6    37 1
    42     7    38 1
    43     7    39 1
    44    10    40 1
    45     9    41 1
    46     9    42 1
    47    12    43 1
    48    13    44 1
    49    13    45 1
    50    11    46 1
    51    11    47 1
    52    16    48 1
    53    17    49 1
    54    20    50 1
    55    20    51 1
    56    25    52 1
    57    25    53 1
    58    21    54 1
    59    21    55 1
    60    23    56 1
    61    23    57 1
    62    23    58 1
    63    24    59 1
    64    24    60 1
    65    29    61 1
    66    29    62 1
    67    30    63 1
    68    30    64 1
    69    31    65 1
    70    31    66 1
    71    31    67 1
@<TRIPOS>SUBSTRUCTURE
     1 HD1         1 TEMP              0 ****  ****    0 ROOT
