@<TRIPOS>MOLECULE
HD2
   65    70     1     0     0
SMALL
bcc


@<TRIPOS>ATOM
      1 C1           0.0000     0.0000     0.0000 ca         1 HD2       0.513200
      2 C2           1.4010     0.0000     0.0000 ca         1 HD2      -0.482200
      3 C3           2.0660     0.0000     1.2330 ca         1 HD2       0.549600
      4 N4           1.3530     0.0010     2.3440 nb         1 HD2      -0.698000
      5 C5           0.0260     0.0000     2.3020 ca         1 HD2       0.736900
      6 N6          -0.6390     0.0010     1.1540 nb         1 HD2      -0.713000
      7 N7          -0.6810    -0.0000     3.4870 nu         1 HD2      -0.463900
      8 C8           3.5710    -0.0010     1.2920 c3         1 HD2      -0.146000
      9 C9           4.1040    -1.4380     1.4740 c3         1 HD2      -0.016900
     10 C10          5.3150    -1.3410     2.4190 c3         1 HD2      -0.022900
     11 C11          5.4760     0.1510     2.7760 c3         1 HD2      -0.022900
     12 C12          4.0660     0.7510     2.5520 c3         1 HD2      -0.016900
     13 C13          2.1580    -0.0010    -1.2670 c          1 HD2       0.625700
     14 O14          3.3680    -0.1160    -1.2520 o          1 HD2      -0.656100
     15 N15          1.5080     0.1260    -2.4410 ns         1 HD2      -0.200900
     16 C16          2.2590     0.1250    -3.6980 c3         1 HD2       0.030700
     17 C17          1.4620     0.8720    -4.7690 c3         1 HD2      -0.051700
     18 C18          0.1150     0.1780    -4.9800 c3         1 HD2      -0.023400
     19 C19          0.3490    -1.2640    -5.4330 c3         1 HD2      -0.036700
     20 C20          1.1460    -2.0120    -4.3620 c3         1 HD2      -0.023400
     21 C21          2.4930    -1.3180    -4.1510 c3         1 HD2      -0.051700
     22 C22          3.2780    -1.3190    -5.4650 c3         1 HD2      -0.026900
     23 C23          2.4810    -0.5710    -6.5350 c3         1 HD2       0.171800
     24 C24          1.1330    -1.2650    -6.7460 c3         1 HD2      -0.050400
     25 C25          2.2460     0.8710    -6.0820 c3         1 HD2      -0.026900
     26 O26          3.2130    -0.5720    -7.7630 oh         1 HD2      -0.583800
     27 C27         -2.1460     0.0010     3.4650 c3         1 HD2       0.094500
     28 C28         -2.7060    -0.6100     4.7680 c3         1 HD2      -0.071400
     29 C29         -3.5200     0.5390     5.4030 c3         1 HD2       0.207400
     30 O30         -3.8670     1.3990     4.2960 os         1 HD2      -0.396600
     31 C31         -2.6870     1.4480     3.4660 c3         1 HD2       0.190400
     32 H1          -0.5500     0.0000    -0.9330 h4         1 HD2      -0.022900
     33 H8           3.9910     0.4450     0.3980 hc         1 HD2       0.100700
     34 H7          -0.1930    -0.0310     4.3600 hn         1 HD2       0.305800
     35 H27         -2.5190    -0.5400     2.6040 h1         1 HD2       0.068700
     36 H91C         3.3380    -2.0620     1.9180 hc         1 HD2       0.021200
     37 H92C         4.4130    -1.8420     0.5180 hc         1 HD2       0.021200
     38 H121         3.4230     0.5420     3.3990 hc         1 HD2       0.021200
     39 H122         4.1290     1.8150     2.3620 hc         1 HD2       0.021200
     40 H101         6.2050    -1.6990     1.9170 hc         1 HD2       0.011450
     41 H102         5.1300    -1.9180     3.3170 hc         1 HD2       0.011450
     42 H111         5.7730     0.2620     3.8120 hc         1 HD2       0.011450
     43 H112         6.1950     0.6220     2.1160 hc         1 HD2       0.011450
     44 H15          0.5170     0.2690    -2.4510 hn         1 HD2       0.184500
     45 H16          3.2120     0.6160    -3.5490 h1         1 HD2       0.061700
     46 H17          1.2960     1.8930    -4.4480 hc         1 HD2       0.039700
     47 H21          3.0580    -1.8470    -3.3930 hc         1 HD2       0.039700
     48 H181        -0.4410     0.1790    -4.0500 hc         1 HD2       0.017450
     49 H182        -0.4490     0.7080    -5.7380 hc         1 HD2       0.017450
     50 H251         1.6820     1.4010    -6.8400 hc         1 HD2       0.027200
     51 H252         3.2000     1.3630    -5.9340 hc         1 HD2       0.027200
     52 H19         -0.6050    -1.7560    -5.5810 hc         1 HD2       0.026700
     53 H201         0.5900    -2.0110    -3.4320 hc         1 HD2       0.017450
     54 H202         1.3120    -3.0330    -4.6820 hc         1 HD2       0.017450
     55 H241         1.2990    -2.2860    -7.0670 hc         1 HD2       0.022700
     56 H242         0.5690    -0.7350    -7.5040 hc         1 HD2       0.022700
     57 H221         3.4430    -2.3410    -5.7860 hc         1 HD2       0.027200
     58 H222         4.2320    -0.8290    -5.3170 hc         1 HD2       0.027200
     59 H26          2.7240    -0.1080    -8.4210 ho         1 HD2       0.391000
     60 H281        -1.8980    -0.9080     5.4240 hc         1 HD2       0.029200
     61 H282        -3.3520    -1.4510     4.5440 hc         1 HD2       0.029200
     62 H311        -2.9470     1.7530     2.4600 h1         1 HD2       0.019200
     63 H312        -1.9540     2.1230     3.8940 h1         1 HD2       0.019200
     64 H291        -2.9130     1.0770     6.1210 h1         1 HD2       0.010700
     65 H292        -4.4160     0.1500     5.8720 h1         1 HD2       0.010700
@<TRIPOS>BOND
     1     1     2 ar  
     2     1     6 ar  
     3     1    32 1   
     4     2     3 ar  
     5     2    13 1   
     6     3     4 ar  
     7     3     8 1   
     8     4     5 ar  
     9     5     6 ar  
    10     5     7 1   
    11     7    27 1   
    12     7    34 1   
    13     8     9 1   
    14     8    12 1   
    15     8    33 1   
    16     9    10 1   
    17     9    36 1   
    18     9    37 1   
    19    10    11 1   
    20    10    40 1   
    21    10    41 1   
    22    11    12 1   
    23    11    42 1   
    24    11    43 1   
    25    12    38 1   
    26    12    39 1   
    27    13    14 2   
    28    13    15 1   
    29    15    16 1   
    30    15    44 1   
    31    16    17 1   
    32    16    21 1   
    33    16    45 1   
    34    17    18 1   
    35    17    25 1   
    36    17    46 1   
    37    18    19 1   
    38    18    48 1   
    39    18    49 1   
    40    19    20 1   
    41    19    24 1   
    42    19    52 1   
    43    20    21 1   
    44    20    53 1   
    45    20    54 1   
    46    21    22 1   
    47    21    47 1   
    48    22    23 1   
    49    22    57 1   
    50    22    58 1   
    51    23    24 1   
    52    23    25 1   
    53    23    26 1   
    54    24    55 1   
    55    24    56 1   
    56    25    50 1   
    57    25    51 1   
    58    26    59 1   
    59    27    28 1   
    60    27    31 1   
    61    27    35 1   
    62    28    29 1   
    63    28    60 1   
    64    28    61 1   
    65    29    30 1   
    66    29    64 1   
    67    29    65 1   
    68    30    31 1   
    69    31    62 1   
    70    31    63 1   
@<TRIPOS>SUBSTRUCTURE
     1 HD2         1 TEMP              0 ****  ****    0 ROOT
