@<TRIPOS>MOLECULE
HD4
   52    52     1     0     0
SMALL
bcc


@<TRIPOS>ATOM
      1 C14          0.0000     0.0000     0.0000 c3         1 HD4       0.373900
      2 C5           1.5310     0.0000     0.0000 c3         1 HD4      -0.024300
      3 C11         -0.0750     1.1700     2.0920 c3         1 HD4       0.166100
      4 C7           2.0340     0.0000     1.4470 c3         1 HD4       0.165100
      5 C9           1.4530     1.2160     2.1760 c3         1 HD4       0.132100
      6 C1           2.6500    -2.4320    -2.7360 c3         1 HD4      -0.063100
      7 C2           2.1490    -1.2000    -2.0290 c          1 HD4       0.550100
      8 O3           1.8600    -0.2100    -2.6680 o          1 HD4      -0.554100
      9 N4           2.0200    -1.1980    -0.6870 ns         1 HD4      -0.200900
     10 O13         -0.4750     1.1390     0.7210 os         1 HD4      -0.372600
     11 O16         -0.4760     0.0560    -1.3460 os         1 HD4      -0.306600
     12 C17         -1.8960    -0.0520    -1.4640 c3         1 HD4       0.148100
     13 C19         -2.2860    -1.5250    -1.6080 c3         1 HD4       0.184400
     14 O20         -1.7640    -2.0380    -2.8350 oh         1 HD4      -0.567800
     15 C21         -2.3660     0.7210    -2.6990 c3         1 HD4       0.182100
     16 C23         -1.9760     2.1950    -2.5550 c3         1 HD4       0.142100
     17 C25         -2.4450     2.9690    -3.7890 c3         1 HD4       0.248400
     18 O26         -2.1860     4.3610    -3.6050 os         1 HD4      -0.482200
     19 P27         -2.5530     5.4750    -4.7080 p5         1 HD4       0.671900
     20 O28         -1.6660     5.2340    -6.0300 o          1 HD4      -0.757167
     21 O29         -3.9890     5.3750    -5.0520 o          1 HD4      -0.757167
     22 O30         -2.2440     6.9400    -4.1150 o          1 HD4      -0.757167
     23 O31         -0.5570     2.3020    -2.4360 oh         1 HD4      -0.617800
     24 O32         -3.7860     0.6140    -2.8180 oh         1 HD4      -0.591800
     25 C33         -0.6610     2.4110     2.7670 c3         1 HD4       0.223400
     26 O34         -2.0870     2.3120     2.7920 oh         1 HD4      -0.570800
     27 O35          1.8580     1.1880     3.5470 oh         1 HD4      -0.599800
     28 O36          3.4610     0.0720     1.4560 oh         1 HD4      -0.577800
     29 H1          -0.3590    -0.9030     0.4780 h2         1 HD4      -0.031300
     30 H2           1.8910     0.8870    -0.5070 h1         1 HD4       0.102700
     31 H3          -0.4350     0.2780     2.5910 h1         1 HD4       0.008700
     32 H4           1.7080    -0.9070     1.9410 h1         1 HD4      -0.000300
     33 H5           1.8120     2.1230     1.7060 h1         1 HD4       0.041700
     34 H6           3.7280    -2.4900    -2.6410 hc         1 HD4       0.012367
     35 H7           2.2000    -3.3120    -2.2920 hc         1 HD4       0.012367
     36 H8           2.3830    -2.3810    -3.7850 hc         1 HD4       0.012367
     37 H9           2.2390    -2.0220    -0.1630 hn         1 HD4       0.150500
     38 H10         -2.3650     0.3610    -0.5790 h1         1 HD4       0.036700
     39 H11         -3.3660    -1.6140    -1.6100 h1         1 HD4      -0.021300
     40 H12         -1.8790    -2.0890    -0.7780 h1         1 HD4      -0.021300
     41 H13         -2.0780    -2.9180    -2.9660 ho         1 HD4       0.360000
     42 H14         -1.8970     0.3080    -3.5830 h1         1 HD4       0.029700
     43 H15         -2.4450     2.6080    -1.6700 h1         1 HD4       0.005700
     44 H16         -3.5090     2.8150    -3.9290 h1         1 HD4      -0.021300
     45 H17         -1.9110     2.6150    -4.6620 h1         1 HD4      -0.021300
     46 H20         -0.3050     3.2100    -2.4780 ho         1 HD4       0.421000
     47 H21         -4.0060     0.2830    -3.6730 ho         1 HD4       0.388000
     48 H22         -0.3700     3.2950     2.2130 h1         1 HD4      -0.002300
     49 H23         -0.2860     2.4810     3.7810 h1         1 HD4      -0.002300
     50 H24         -2.4290     2.8760     3.4650 ho         1 HD4       0.379000
     51 H25          2.4530     1.9000     3.7130 ho         1 HD4       0.394000
     52 H26          3.8040    -0.5710     2.0540 ho         1 HD4       0.381000
@<TRIPOS>BOND
     1     1     2 1   
     2     1    10 1   
     3     1    11 1   
     4     1    29 1   
     5     2     4 1   
     6     2     9 1   
     7     2    30 1   
     8     3     5 1   
     9     3    10 1   
    10     3    25 1   
    11     3    31 1   
    12     4     5 1   
    13     4    28 1   
    14     4    32 1   
    15     5    27 1   
    16     5    33 1   
    17     6     7 1   
    18     6    34 1   
    19     6    35 1   
    20     6    36 1   
    21     7     8 2   
    22     7     9 1   
    23     9    37 1   
    24    11    12 1   
    25    12    13 1   
    26    12    15 1   
    27    12    38 1   
    28    13    14 1   
    29    13    39 1   
    30    13    40 1   
    31    14    41 1   
    32    15    16 1   
    33    15    24 1   
    34    15    42 1   
    35    16    17 1   
    36    16    23 1   
    37    16    43 1   
    38    17    18 1   
    39    17    44 1   
    40    17    45 1   
    41    18    19 1   
    42    19    20 1   
    43    19    21 1   
    44    19    22 1   
    45    23    46 1   
    46    24    47 1   
    47    25    26 1   
    48    25    48 1   
    49    25    49 1   
    50    26    50 1   
    51    27    51 1   
    52    28    52 1   
@<TRIPOS>SUBSTRUCTURE
     1 HD4         1 TEMP              0 ****  ****    0 ROOT
