@<TRIPOS>MOLECULE
molecule
   12    11     1     0     0
SMALL
bcc


@<TRIPOS>ATOM
      1 NA           0.0000     0.0000     0.0000 n          1 HDA      -0.345300
      2 C            1.3480     0.0000     0.0000 c          1 HDA       0.683900
      3 O            1.9540     0.0000     1.0500 o          1 HDA      -0.655100
      4 OB          -0.7080    -0.0000     1.2260 oh         1 HDA      -0.376100
      5 CB          -0.7320     0.0070    -1.2690 c3         1 HDA      -0.010000
      6 CG          -0.6650    -1.3630    -1.8940 c          1 HDA       0.871600
      7 OD1         -0.0670    -2.2530    -1.3370 o          1 HDA      -0.831300
      8 OD2         -1.2700    -1.5940    -3.0700 o          1 HDA      -0.831300
      9 HC           1.8890     0.0320    -0.9380 h5         1 HDA       0.037200
     10 HOB         -0.8410     0.8880     1.5120 ho         1 HDA       0.368000
     11 HB1         -0.2870     0.7320    -1.9390 h1         1 HDA       0.043700
     12 HB2         -1.7670     0.2710    -1.0870 h1         1 HDA       0.043700
@<TRIPOS>BOND
     1     1     2 1
     2     1     4 1
     3     1     5 1
     4     2     3 2
     5     2     9 1
     6     4    10 1
     7     5     6 1
     8     5    11 1
     9     5    12 1
    10     6     7 1
    11     6     8 1
@<TRIPOS>SUBSTRUCTURE
     1 HDA         1 TEMP              0 ****  ****    0 ROOT
