@<TRIPOS>MOLECULE
HDF
   43    45     1     0     0
SMALL
bcc


@<TRIPOS>ATOM
      1 N1          0.0110    0.2850   -0.0080 nc        1 HDF     -0.434400
      2 C2          1.4240    0.3270   -0.0090 c         1 HDF      0.851900
      3 O2          2.0690    0.5050   -1.0600 o         1 HDF     -0.595500
      4 N3          2.1610    0.1640    1.1960 n         1 HDF     -0.608500
      5 C4          1.5410   -0.0240    2.4240 c         1 HDF      0.723100
      6 O4          2.2170   -0.1610    3.4620 o         1 HDF     -0.627500
      7 C4A         0.0590   -0.0540    2.4320 cd        1 HDF     -0.256600
      8 C5         -0.6260   -0.1990    3.5960 cc        1 HDF      0.057000
      9 C5A        -2.0560   -0.2000    3.5910 ca        1 HDF     -0.177000
     10 C6         -2.7760   -0.3140    4.7960 ca        1 HDF     -0.018000
     11 C7         -4.1540   -0.2890    4.8110 ca        1 HDF     -0.243000
     12 C8         -4.8410   -0.1360    3.5860 ca        1 HDF      0.190100
     13 O8         -6.2100   -0.0860    3.5200 oh        1 HDF     -0.488100
     14 C9         -4.1650   -0.0220    2.3720 ca        1 HDF     -0.229000
     15 C9A        -2.7470   -0.0670    2.3480 ca        1 HDF      0.137700
     16 N10        -2.0410   -0.0080    1.1430 na        1 HDF     -0.101100
     17 C10        -0.6340    0.0920    1.1380 cd        1 HDF      0.209700
     18 C1'        -2.7650    0.0930   -0.1140 c3        1 HDF     -0.007700
     19 C2'        -3.2320    1.5180   -0.4770 c3        1 HDF      0.099100
     20 O2'        -2.1680    2.4400   -0.4780 oh        1 HDF     -0.583800
     21 C3'        -3.9820    1.4720   -1.8250 c3        1 HDF      0.113100
     22 O3'        -3.4320    0.5190   -2.7120 oh        1 HDF     -0.598800
     23 C4'        -4.0110    2.8730   -2.4610 c3        1 HDF      0.116100
     24 O4'        -2.7320    3.0640   -3.0470 oh        1 HDF     -0.616800
     25 C5'        -5.1070    2.9480   -3.5270 c3        1 HDF      0.093400
     26 O5'        -4.9700    4.2190   -4.1430 oh        1 HDF     -0.611800
     27 HN3         3.1560    0.1970    1.1510 hn        1 HDF      0.345500
     28 H5         -0.0860   -0.3080    4.5550 ha        1 HDF      0.172000
     29 H6         -2.2140   -0.4240    5.7380 ha        1 HDF      0.148000
     30 H7         -4.7150   -0.3800    5.7510 ha        1 HDF      0.147000
     31 HO8        -6.5610   -0.1690    4.4200 ho        1 HDF      0.431000
     32 H9         -4.7640    0.1130    1.4600 ha        1 HDF      0.163000
     33 H1'1       -3.6660   -0.5830   -0.0700 h1        1 HDF      0.091700
     34 H1'2       -2.1120   -0.2960   -0.9500 h1        1 HDF      0.091700
     35 H2'        -3.9320    1.9140    0.3150 h1        1 HDF      0.076700
     36 HO2'       -1.5960    2.2380   -1.2330 ho        1 HDF      0.431000
     37 H3'        -5.0350    1.1120   -1.6460 h1        1 HDF      0.077700
     38 HO3'       -2.5870    0.8660   -3.0330 ho        1 HDF      0.430000
     39 H4'        -4.1810    3.6550   -1.6710 h1        1 HDF      0.069700
     40 HO4'       -2.7650    3.9040   -3.5250 ho        1 HDF      0.436000
     41 H5'1       -6.1200    2.8600   -3.0540 h1        1 HDF      0.042200
     42 H5'2       -4.9650    2.1260   -4.2770 h1        1 HDF      0.042200
     43 HO5'       -5.5300    4.2120   -4.9280 ho        1 HDF      0.412000
@<TRIPOS>BOND
     1    1    2 1   
     2    1   17 2   
     3    2    3 2   
     4    2    4 1   
     5    4    5 1   
     6    4   27 1   
     7    5    6 2   
     8    5    7 1   
     9    7    8 2   
    10    7   17 1   
    11    8    9 1   
    12    8   28 1   
    13    9   10 ar  
    14    9   15 ar  
    15   10   11 ar  
    16   10   29 1   
    17   11   12 ar  
    18   11   30 1   
    19   12   13 1   
    20   12   14 ar  
    21   13   31 1   
    22   14   15 ar  
    23   14   32 1   
    24   15   16 1   
    25   16   17 1   
    26   16   18 1   
    27   18   19 1   
    28   18   33 1   
    29   18   34 1   
    30   19   20 1   
    31   19   21 1   
    32   19   35 1   
    33   20   36 1   
    34   21   22 1   
    35   21   23 1   
    36   21   37 1   
    37   22   38 1   
    38   23   24 1   
    39   23   25 1   
    40   23   39 1   
    41   24   40 1   
    42   25   26 1   
    43   25   41 1   
    44   25   42 1   
    45   26   43 1   
@<TRIPOS>SUBSTRUCTURE
     1 HDF         1 TEMP              0 ****  ****    0 ROOT
