@<TRIPOS>MOLECULE
molecule
   88    92     1     0     0
SMALL
bcc


@<TRIPOS>ATOM
      1 C4           1.5300     0.0000     0.0000 c3         1 HDG      -0.024700
      2 C3           0.0000     0.0000     0.0000 c3         1 HDG      -0.252400
      3 C2          -0.5100    -0.1260    -1.4380 c3         1 HDG       0.140100
      4 C5           2.0400     0.0000     1.4420 c3         1 HDG      -0.187400
      5 C6           1.6430    -1.3120     2.1230 c3         1 HDG      -0.074400
      6 C1          -2.0500    -0.0030    -1.4750 c3         1 HDG       0.122100
      7 C8           1.8080    -2.6150     4.2270 c          1 HDG       0.630100
      8 N1           2.7200    -3.6020     4.1270 ns         1 HDG      -0.543900
      9 C9           2.4130    -4.9380     4.6450 c3         1 HDG       0.105000
     10 C10          3.6500    -5.8310     4.5190 c3         1 HDG      -0.040100
     11 C11          3.3000    -7.2350     4.9400 ca         1 HDG      -0.150300
     12 C17          2.8360    -8.1410     4.0040 ca         1 HDG      -0.080000
     13 C16          2.5150    -9.4280     4.3870 ca         1 HDG      -0.184000
     14 C14          2.6600    -9.8130     5.7120 ca         1 HDG       0.160100
     15 O2           2.3450   -11.0800     6.0910 os         1 HDG      -0.319900
     16 C15          2.5170   -11.4040     7.4720 c3         1 HDG       0.125700
     17 C13          3.1260    -8.9020     6.6500 ca         1 HDG      -0.184000
     18 C12          3.4500    -7.6170     6.2610 ca         1 HDG      -0.080000
     19 C7           2.0750    -1.2750     3.5910 c3         1 HDG       0.026500
     20 N            1.3150    -0.2370     4.2990 nz         1 HDG      -0.792600
     21 C18          2.0390     1.2500    -0.7210 c3         1 HDG       0.159800
     22 N2           3.5030     1.1840    -0.8390 n7         1 HDG      -0.833200
     23 C19          4.0360     2.4050    -1.4570 c3         1 HDG       0.213100
     24 C20          5.5190     2.2510    -1.6770 ca         1 HDG      -0.097300
     25 C25          5.9950     1.8150    -2.9000 ca         1 HDG      -0.117000
     26 C24          7.3540     1.6740    -3.1010 ca         1 HDG      -0.124500
     27 C23          8.2390     1.9670    -2.0800 ca         1 HDG      -0.116000
     28 C22          7.7640     2.4020    -0.8570 ca         1 HDG      -0.124500
     29 C21          6.4030     2.5490    -0.6580 ca         1 HDG      -0.117000
     30 O1          -2.4370     1.3250    -1.8370 oh         1 HDG      -0.615800
     31 O4          -0.2330    -1.4450    -1.9560 os         1 HDG      -0.424600
     32 C26         -1.1500    -1.6220    -3.0570 c3         1 HDG       0.373800
     33 C           -2.4800    -1.0090    -2.5650 c3         1 HDG      -0.242900
     34 O           -3.1470    -0.3340    -3.6340 oh         1 HDG      -0.585800
     35 N3          -1.3230    -3.0460    -3.3540 na         1 HDG      -0.247000
     36 C31         -1.0580    -4.0840    -2.5100 cc         1 HDG       0.430700
     37 N7          -1.3250    -5.2130    -3.0980 nd         1 HDG      -0.574100
     38 C30         -1.7770    -4.9740    -4.3510 ca         1 HDG      -0.209200
     39 C27         -1.7870    -3.5800    -4.5290 ca         1 HDG       0.484800
     40 C29         -2.2070    -5.7810    -5.4190 ca         1 HDG       0.795200
     41 N6          -2.2240    -7.1600    -5.3000 nv         1 HDG      -0.977500
     42 N5          -2.5950    -5.1900    -6.5440 nb         1 HDG      -0.827000
     43 C28         -2.5810    -3.8750    -6.6660 ca         1 HDG       0.756900
     44 N4          -2.1940    -3.0790    -5.6910 nb         1 HDG      -0.801000
     45 H1           1.8890    -0.8850    -0.5120 hc         1 HDG       0.062700
     46 H2           0.5380    -0.8860    -0.3150 hc         1 HDG       0.110700
     47 H3          -0.5870    -0.3700     0.8310 hc         1 HDG       0.110700
     48 H4          -0.0740     0.6160    -2.0960 h1         1 HDG       0.090700
     49 H5           1.6100     0.9930     1.4940 hc         1 HDG       0.087200
     50 H6           3.1200     0.0900     1.4500 hc         1 HDG       0.087200
     51 H7           2.1210    -2.1430     1.6190 hc         1 HDG       0.094700
     52 H8           0.5700    -1.4430     2.0580 hc         1 HDG       0.094700
     53 H9          -2.4740    -0.2800    -0.5180 h1         1 HDG       0.067700
     54 H10          3.6070    -3.4230     3.6990 hn         1 HDG       0.326500
     55 H11          2.1250    -4.8640     5.6870 h1         1 HDG       0.073700
     56 H12          1.5980    -5.3680     4.0760 h1         1 HDG       0.073700
     57 H13          3.9890    -5.8360     3.4900 hc         1 HDG       0.053200
     58 H14          4.4370    -5.4470     5.1570 hc         1 HDG       0.053200
     59 H15          2.7240    -7.8400     2.9690 ha         1 HDG       0.131000
     60 H16          2.1510   -10.1370     3.6530 ha         1 HDG       0.149000
     61 H17          2.2330   -12.4370     7.6380 h1         1 HDG       0.046700
     62 H18          3.5560   -11.2680     7.7480 h1         1 HDG       0.046700
     63 H19          1.8940   -10.7560     8.0770 h1         1 HDG       0.046700
     64 H20          3.2390    -9.2000     7.6850 ha         1 HDG       0.149000
     65 H21          3.8180    -6.9070     6.9910 ha         1 HDG       0.131000
     66 H22          3.1330    -1.0520     3.6500 hx         1 HDG       0.117700
     67 H23          0.3320    -0.4210     4.2580 hn         1 HDG       0.462133
     68 H24          1.6240    -0.1500     5.2470 hn         1 HDG       0.462133
     69 H26          1.6000     1.3010    -1.7090 h1         1 HDG       0.050700
     70 H27          1.7620     2.1310    -0.1550 h1         1 HDG       0.050700
     71 H28          3.9280     1.0190     0.0520 hn         1 HDG       0.347800
     72 H30          3.5450     2.5720    -2.4080 h1         1 HDG       0.043700
     73 H31          3.8530     3.2510    -0.8050 h1         1 HDG       0.043700
     74 H32          5.3020     1.5850    -3.7000 ha         1 HDG       0.126500
     75 H33          7.7280     1.3330    -4.0590 ha         1 HDG       0.136000
     76 H34          9.3040     1.8550    -2.2380 ha         1 HDG       0.138000
     77 H35          8.4560     2.6330    -0.0570 ha         1 HDG       0.136000
     78 H36          6.0300     2.8950     0.2980 ha         1 HDG       0.126500
     79 H37         -3.3700     1.4550    -1.8750 ho         1 HDG       0.428000
     80 H38         -0.8070    -1.0510    -3.9120 h2         1 HDG       0.068700
     81 H39         -1.8010    -0.7210    -3.3590 h1         1 HDG       0.251700
     82 H40         -3.9680     0.0590    -3.3860 ho         1 HDG       0.425000
     83 H41         -0.6800    -3.9820    -1.5000 h5         1 HDG       0.074800
     84 H42         -2.5330    -7.7240    -6.0670 hn         1 HDG       0.454300
     85 H43         -1.9300    -7.5930    -4.4470 hn         1 HDG       0.454300
     86 H44         -2.9060    -3.4350    -7.6010 h5         1 HDG       0.068100
     87 HN3          1.4850     0.6350     3.8390 hn         1 HDG       0.462133
     88 O3           0.7710    -2.8050     4.8270 o          1 HDG      -0.590100
@<TRIPOS>BOND
     1    41    40 1
     2    40    42 ar
     3    40    38 ar
     4    37    38 1
     5    37    36 2
     6    42    43 ar
     7    38    39 ar
     8    36    35 1
     9    43    44 ar
    10    39    35 1
    11    39    44 ar
    12    35    32 1
    13    19     5 1
    14    19    20 1
    15    19     7 1
    16    32    33 1
    17    32    31 1
    18    33    34 1
    19    33     6 1
    20     5     4 1
    21    31     3 1
    22     8     7 1
    23     8     9 1
    24     7    88 2
    25    10     9 1
    26    10    11 1
    27     2     3 1
    28     2     1 1
    29     3     6 1
    30     6    30 1
    31     4     1 1
    32     1    21 1
    33    18    11 ar
    34    18    17 ar
    35    11    12 ar
    36    17    14 ar
    37    21    22 1
    38    12    13 ar
    39    22    23 1
    40    14    13 ar
    41    14    15 1
    42    16    15 1
    43    23    24 1
    44    29    24 ar
    45    29    28 ar
    46    24    25 ar
    47    28    27 ar
    48    25    26 ar
    49    27    26 ar
    50     1    45 1
    51     2    46 1
    52     2    47 1
    53     3    48 1
    54     4    49 1
    55     4    50 1
    56     5    51 1
    57     5    52 1
    58     6    53 1
    59     8    54 1
    60     9    55 1
    61     9    56 1
    62    10    57 1
    63    10    58 1
    64    12    59 1
    65    13    60 1
    66    16    61 1
    67    16    62 1
    68    16    63 1
    69    17    64 1
    70    18    65 1
    71    19    66 1
    72    20    67 1
    73    20    68 1
    74    21    69 1
    75    21    70 1
    76    22    71 1
    77    23    72 1
    78    23    73 1
    79    25    74 1
    80    26    75 1
    81    27    76 1
    82    28    77 1
    83    29    78 1
    84    30    79 1
    85    32    80 1
    86    33    81 1
    87    34    82 1
    88    36    83 1
    89    41    84 1
    90    41    85 1
    91    43    86 1
    92    87    20 1
@<TRIPOS>SUBSTRUCTURE
     1 HDG         1 TEMP              0 ****  ****    0 ROOT
