@<TRIPOS>MOLECULE
HDG
   88    93     1     0     0
SMALL
bcc


@<TRIPOS>ATOM
      1 C4           1.5300     0.0000     0.0000 c3         1 HDG      -0.019000
      2 C3           0.0000     0.0000     0.0000 c3         1 HDG      -0.316000
      3 C2          -0.5100    -0.1260    -1.4380 c3         1 HDG       0.082000
      4 C5           2.0400     0.0000     1.4420 c3         1 HDG      -0.245000
      5 C6           1.6430    -1.3120     2.1230 c3         1 HDG      -0.076000
      6 C1          -2.0500    -0.0030    -1.4750 c3         1 HDG       0.048000
      7 C8           1.8080    -2.6150     4.2270 c2         1 HDG       0.179000
      8 N1           2.7200    -3.6020     4.1270 ns         1 HDG       0.080000
      9 C9           2.4130    -4.9380     4.6450 c3         1 HDG      -0.085000
     10 C10          3.6500    -5.8310     4.5190 c3         1 HDG      -0.049000
     11 C11          3.3000    -7.2350     4.9400 ca         1 HDG      -0.158000
     12 C17          2.8360    -8.1410     4.0040 ca         1 HDG      -0.047000
     13 C16          2.5150    -9.4280     4.3870 ca         1 HDG      -0.169000
     14 C14          2.6600    -9.8130     5.7120 ca         1 HDG       0.126000
     15 O2           2.3450   -11.0800     6.0910 os         1 HDG      -0.183000
     16 C15          2.5170   -11.4040     7.4720 c3         1 HDG       0.054000
     17 C13          3.1260    -8.9020     6.6500 ca         1 HDG      -0.169000
     18 C12          3.4500    -7.6170     6.2610 ca         1 HDG      -0.047000
     19 C7           2.0750    -1.2750     3.5910 c3         1 HDG      -0.302000
     20 N            1.3150    -0.2370     4.2990 nz         1 HDG       0.870000
     21 C18          2.0390     1.2500    -0.7210 c3         1 HDG      -0.109000
     22 N2           3.5030     1.1840    -0.8390 n7         1 HDG      -0.071000
     23 C19          4.0360     2.4050    -1.4570 c3         1 HDG      -0.032000
     24 C20          5.5190     2.2510    -1.6770 ca         1 HDG      -0.102000
     25 C25          5.9950     1.8150    -2.9000 ca         1 HDG      -0.089500
     26 C24          7.3540     1.6740    -3.1010 ca         1 HDG      -0.096000
     27 C23          8.2390     1.9670    -2.0800 ca         1 HDG      -0.088000
     28 C22          7.7640     2.4020    -0.8570 ca         1 HDG      -0.096000
     29 C21          6.4030     2.5490    -0.6580 ca         1 HDG      -0.089500
     30 O1          -2.4370     1.3250    -1.8370 oh         1 HDG      -0.320000
     31 O4          -0.2330    -1.4450    -1.9560 os         1 HDG      -0.275000
     32 C26         -1.1500    -1.6220    -3.0570 DU         1 HDG       0.238000
     33 C           -2.4800    -1.0090    -2.5650 c3         1 HDG      -0.363000
     34 O           -3.1470    -0.3340    -3.6340 oh         1 HDG      -0.275000
     35 N3          -1.3230    -3.0460    -3.3540 na         1 HDG       0.278000
     36 C31         -1.0580    -4.0840    -2.5100 c2         1 HDG      -0.205000
     37 N7          -1.3250    -5.2130    -3.0980 n2         1 HDG      -0.053000
     38 C30         -1.7770    -4.9740    -4.3510 c2         1 HDG      -0.253000
     39 C27         -1.7870    -3.5800    -4.5290 c2         1 HDG      -0.107000
     40 C29         -2.2070    -5.7810    -5.4190 c2         1 HDG       0.074000
     41 N6          -2.2240    -7.1600    -5.3000 nv         1 HDG       0.133000
     42 N5          -2.5950    -5.1900    -6.5440 n2         1 HDG      -0.209000
     43 C28         -2.5810    -3.8750    -6.6660 c2         1 HDG       0.046000
     44 N4          -2.1940    -3.0790    -5.6910 n2         1 HDG      -0.167000
     45 H1           1.8890    -0.8850    -0.5120 hc         1 HDG       0.079000
     46 H2           0.5380    -0.8860    -0.3150 hc         1 HDG       0.123500
     47 H3          -0.5870    -0.3700     0.8310 hc         1 HDG       0.123500
     48 H4          -0.0740     0.6160    -2.0960 h1         1 HDG       0.096000
     49 H5           1.6100     0.9930     1.4940 hc         1 HDG       0.109000
     50 H6           3.1200     0.0900     1.4500 hc         1 HDG       0.109000
     51 H7           2.1210    -2.1430     1.6190 hc         1 HDG       0.097500
     52 H8           0.5700    -1.4430     2.0580 hc         1 HDG       0.097500
     53 H9          -2.4740    -0.2800    -0.5180 h1         1 HDG       0.074000
     54 H10          3.6070    -3.4230     3.6990 hn         1 HDG       0.094000
     55 H11          2.1250    -4.8640     5.6870 h1         1 HDG       0.085000
     56 H12          1.5980    -5.3680     4.0760 h1         1 HDG       0.085000
     57 H13          3.9890    -5.8360     3.4900 hc         1 HDG       0.059500
     58 H14          4.4370    -5.4470     5.1570 hc         1 HDG       0.059500
     59 H15          2.7240    -7.8400     2.9690 ha         1 HDG       0.101500
     60 H16          2.1510   -10.1370     3.6530 ha         1 HDG       0.126500
     61 H17          2.2330   -12.4370     7.6380 h1         1 HDG       0.041000
     62 H18          3.5560   -11.2680     7.7480 h1         1 HDG       0.041000
     63 H19          1.8940   -10.7560     8.0770 h1         1 HDG       0.041000
     64 H20          3.2390    -9.2000     7.6850 ha         1 HDG       0.126500
     65 H21          3.8180    -6.9070     6.9910 ha         1 HDG       0.101500
     66 H22          3.1330    -1.0520     3.6500 hx         1 HDG       0.131000
     67 H23          0.3320    -0.4210     4.2580 hn         1 HDG       0.024000
     68 H24          1.6240    -0.1500     5.2470 hn         1 HDG       0.024000
     69 H26          1.6000     1.3010    -1.7090 h1         1 HDG       0.066000
     70 H27          1.7620     2.1310    -0.1550 h1         1 HDG       0.066000
     71 H28          3.9280     1.0190     0.0520 hn         1 HDG       0.043000
     72 H30          3.5450     2.5720    -2.4080 h1         1 HDG       0.053500
     73 H31          3.8530     3.2510    -0.8050 h1         1 HDG       0.053500
     74 H32          5.3020     1.5850    -3.7000 ha         1 HDG       0.100500
     75 H33          7.7280     1.3330    -4.0590 ha         1 HDG       0.107500
     76 H34          9.3040     1.8550    -2.2380 ha         1 HDG       0.109000
     77 H35          8.4560     2.6330    -0.0570 ha         1 HDG       0.107500
     78 H36          6.0300     2.8950     0.2980 ha         1 HDG       0.100500
     79 H37         -3.3700     1.4550    -1.8750 ho         1 HDG       0.213000
     80 H38         -0.8070    -1.0510    -3.9120 ha         1 HDG       0.061000
     81 H39         -1.8010    -0.7210    -3.3590 DU         1 HDG       0.238000
     82 H40         -3.9680     0.0590    -3.3860 ho         1 HDG       0.223000
     83 H41         -0.6800    -3.9820    -1.5000 h5         1 HDG       0.155000
     84 H42         -2.5330    -7.7240    -6.0670 hn         1 HDG       0.074000
     85 H43         -1.9300    -7.5930    -4.4470 hn         1 HDG       0.074000
     86 H44         -2.9060    -3.4350    -7.6010 h5         1 HDG       0.137000
     87 HN3          1.4850     0.6350     3.8390 hn         1 HDG       0.024000
     88 O3           0.7710    -2.8050     4.8270 o          1 HDG      -0.398000
@<TRIPOS>BOND
     1     1     2 1   
     2     1     4 1   
     3     1    21 1   
     4     1    45 1   
     5     2     3 1   
     6     2    46 1   
     7     2    47 1   
     8     3     6 1   
     9     3    31 1   
    10     3    48 1   
    11     4     5 1   
    12     4    49 1   
    13     4    50 1   
    14     5    19 1   
    15     5    51 1   
    16     5    52 1   
    17     6    30 1   
    18     6    33 1   
    19     6    53 1   
    20     7     8 1   
    21     7    19 1   
    22     7    88 1   
    23     8     9 1   
    24     8    54 1   
    25     9    10 1   
    26     9    55 1   
    27     9    56 1   
    28    10    11 1   
    29    10    57 1   
    30    10    58 1   
    31    11    12 1   
    32    11    18 1   
    33    12    13 1   
    34    12    59 1   
    35    13    14 1   
    36    13    60 1   
    37    14    15 1   
    38    14    17 1   
    39    15    16 1   
    40    16    61 1   
    41    16    62 1   
    42    16    63 1   
    43    17    18 1   
    44    17    64 1   
    45    18    65 1   
    46    19    20 1   
    47    19    66 1   
    48    20    67 1   
    49    20    68 1   
    50    20    87 1   
    51    21    22 1   
    52    21    69 1   
    53    21    70 1   
    54    22    23 1   
    55    22    71 1   
    56    23    24 1   
    57    23    72 1   
    58    23    73 1   
    59    24    25 1   
    60    24    29 1   
    61    25    26 1   
    62    25    74 1   
    63    26    27 1   
    64    26    75 1   
    65    27    28 1   
    66    27    76 1   
    67    28    29 1   
    68    28    77 1   
    69    29    78 1   
    70    30    79 1   
    71    31    32 1   
    72    32    33 1   
    73    32    35 1   
    74    32    80 1   
    75    32    81 1   
    76    33    34 1   
    77    33    81 1   
    78    34    82 1   
    79    35    36 1   
    80    35    39 1   
    81    36    37 1   
    82    36    83 1   
    83    37    38 1   
    84    38    39 1   
    85    38    40 1   
    86    39    44 1   
    87    40    41 1   
    88    40    42 1   
    89    41    84 1   
    90    41    85 1   
    91    42    43 1   
    92    43    44 1   
    93    43    86 1   
@<TRIPOS>SUBSTRUCTURE
     1 HDG         1 TEMP              0 ****  ****    0 ROOT
