@<TRIPOS>MOLECULE
HDH
   20    20     1     0     0
SMALL
bcc


@<TRIPOS>ATOM
      1 C1           0.0000     0.0000     0.0000 ca         1 HDH       0.207100
      2 C2           1.3900     0.0000     0.0000 ca         1 HDH      -0.140000
      3 C3           2.0810     0.0000     1.1910 ca         1 HDH      -0.010500
      4 C4           1.3830     0.0000     2.4010 ca         1 HDH      -0.226600
      5 C5          -0.0150     0.0000     2.3980 ca         1 HDH      -0.010500
      6 C6          -0.6980     0.0000     1.2020 ca         1 HDH      -0.140000
      7 O7          -0.6770     0.0070    -1.1750 oh         1 HDH      -0.489100
      8 O10          3.3350     0.0000     3.6830 o          1 HDH      -0.589100
      9 N9           1.4440    -0.0000     4.8470 ns         1 HDH      -0.392300
     10 N17          2.1260    -0.0000     6.0300 nz         1 HDH       0.288400
     11 H1           1.9300     0.0000    -0.9390 ha         1 HDH       0.135500
     12 H2           3.1640     0.0000     1.1900 ha         1 HDH       0.108500
     13 H3          -0.5600     0.0000     3.3340 ha         1 HDH       0.108500
     14 H4          -1.7820     0.0000     1.1980 ha         1 HDH       0.135500
     15 H5          -0.8350    -0.8800    -1.4520 ho         1 HDH       0.425000
     16 H6           2.6980    -0.8190     6.0850 hn         1 HDH       0.219467
     17 H7           0.4430    -0.0320     4.8460 hn         1 HDH       0.276500
     18 H8           2.7040     0.8150     6.0820 hn         1 HDH       0.219467
     19 C8           2.1190    -0.0000     3.6810 c          1 HDH       0.654700
     20 H173         1.4750     0.0030     6.7910 hn         1 HDH       0.219467
@<TRIPOS>BOND
     1     1     2 ar  
     2     1     6 ar  
     3     1     7 1   
     4     2     3 ar  
     5     2    11 1   
     6     3     4 ar  
     7     3    12 1   
     8     4     5 ar  
     9     4    19 1   
    10     5     6 ar  
    11     5    13 1   
    12     6    14 1   
    13     7    15 1   
    14     8    19 2   
    15     9    10 1   
    16     9    17 1   
    17     9    19 1   
    18    10    16 1   
    19    10    18 1   
    20    10    20 1   
@<TRIPOS>SUBSTRUCTURE
     1 HDH         1 TEMP              0 ****  ****    0 ROOT
