@<TRIPOS>MOLECULE
molecule
   30    31     1     0     0
SMALL
bcc


@<TRIPOS>ATOM
      1 C12          0.0000     0.0000     0.0000 c3         1 HDI       0.148700
      2 C11          2.1240     0.0000     1.1620 c          1 HDI       0.634100
      3 O3           1.5200     0.0000     2.2080 o          1 HDI      -0.529000
      4 O4           1.4510     0.0000     0.0000 os         1 HDI      -0.444900
      5 C10          3.6300    -0.0020     1.1620 c3         1 HDI      -0.122400
      6 N1           4.9140     1.5580     4.1130 n2         1 HDI      -0.370200
      7 O2           3.8310     1.2440     3.2610 os         1 HDI      -0.143300
      8 C9           4.1410    -0.0010     2.6030 c3         1 HDI       0.112100
      9 C8           5.6870    -0.0010     2.6440 c3         1 HDI      -0.187700
     10 C7           5.9870     0.9010     3.8230 ce         1 HDI       0.371900
     11 C5           7.4240     1.8880     5.6000 ca         1 HDI      -0.085000
     12 C6           7.2820     1.0110     4.5210 ca         1 HDI      -0.124900
     13 C1           8.3670     0.2360     4.1090 ca         1 HDI      -0.085000
     14 C2           9.5760     0.3470     4.7600 ca         1 HDI      -0.158500
     15 C3           9.7150     1.2190     5.8320 ca         1 HDI       0.122100
     16 C4           8.6350     1.9870     6.2480 ca         1 HDI      -0.158500
     17 H121        -0.3610     0.8610     0.5490 h1         1 HDI       0.049033
     18 H122        -0.3610    -0.9060     0.4710 h1         1 HDI       0.049033
     19 H123        -0.3610     0.0450    -1.0200 h1         1 HDI       0.049033
     20 H101         3.9900    -0.8880     0.6530 hc         1 HDI       0.082200
     21 H102         3.9920     0.8810     0.6500 hc         1 HDI       0.082200
     22 HC9          3.7430    -0.8390     3.1620 h1         1 HDI       0.081700
     23 HC81         6.0940     0.4150     1.7300 hc         1 HDI       0.071200
     24 HC82         6.0650    -1.0010     2.8220 hc         1 HDI       0.071200
     25 HO1         11.4290     1.9890     6.0640 ho         1 HDI       0.423000
     26 HC1          8.2620    -0.4440     3.2730 ha         1 HDI       0.145500
     27 HC2         10.4190    -0.2550     4.4410 ha         1 HDI       0.145500
     28 HC4          8.7470     2.6670     7.0850 ha         1 HDI       0.145500
     29 HC5          6.5840     2.4890     5.9260 ha         1 HDI       0.145500
     30 O1          10.9060     1.3200     6.4750 oh         1 HDI      -0.520100
@<TRIPOS>BOND
     1     1     4 1
     2     1    17 1
     3     1    18 1
     4     1    19 1
     5     2     3 2
     6     2     4 1
     7     2     5 1
     8     5     8 1
     9     5    20 1
    10     5    21 1
    11     6     7 1
    12     6    10 2
    13     7     8 1
    14     8     9 1
    15     8    22 1
    16     9    10 1
    17     9    23 1
    18     9    24 1
    19    10    12 1
    20    30    15 1
    21    30    25 1
    22    11    12 ar
    23    11    16 ar
    24    11    29 1
    25    12    13 ar
    26    13    14 ar
    27    13    26 1
    28    14    15 ar
    29    14    27 1
    30    15    16 ar
    31    16    28 1
@<TRIPOS>SUBSTRUCTURE
     1 HDI         1 TEMP              0 ****  ****    0 ROOT
