@<TRIPOS>MOLECULE
HDN
    7     6     1     0     0
SMALL
bcc


@<TRIPOS>ATOM
      1 N1           0.0000     0.0000     0.0000 n2         1 HDN      -0.279400
      2 N2           1.2390     0.0000     0.0000 n2         1 HDN      -0.160200
      3 C1           1.9720     0.0000     1.2680 c3         1 HDN       0.111100
      4 HN1         -0.5000     0.0000     0.8670 hn         1 HDN       0.280400
      5 H11          3.0370     0.0000     1.0700 h1         1 HDN       0.016033
      6 H12          1.7100    -0.8850     1.8360 h1         1 HDN       0.016033
      7 H13          1.7100     0.8840     1.8360 h1         1 HDN       0.016033
@<TRIPOS>BOND
     1     1     2 2   
     2     1     4 1   
     3     2     3 1   
     4     3     5 1   
     5     3     6 1   
     6     3     7 1   
@<TRIPOS>SUBSTRUCTURE
     1 HDN         1 TEMP              0 ****  ****    0 ROOT
