@<TRIPOS>MOLECULE
molecule
   38    37     1     0     0
SMALL
bcc


@<TRIPOS>ATOM
      1 C02          0.0000     0.0000     0.0000 c3         1 HDO       0.139400
      2 C03          1.5300     0.0000     0.0000 c3         1 HDO      -0.072400
      3 C04          2.0400     0.0000     1.4430 c3         1 HDO      -0.184400
      4 C05          3.5470    -0.0000     1.4420 c          1 HDO       0.562100
      5 C07          4.3010    -0.0000     2.7480 c3         1 HDO      -0.183400
      6 C08          5.8050    -0.0000     2.4680 c3         1 HDO      -0.072400
      7 C09          6.5700    -0.0000     3.7930 c3         1 HDO      -0.084400
      8 C10          8.0740    -0.0000     3.5130 c3         1 HDO      -0.080400
      9 C11          8.8390    -0.0000     4.8380 c3         1 HDO      -0.082400
     10 C12         10.3440    -0.0000     4.5580 c3         1 HDO      -0.081400
     11 C13         11.1090    -0.0000     5.8830 c3         1 HDO      -0.084400
     12 C14         12.6130    -0.0000     5.6040 c3         1 HDO      -0.092100
     13 O01         -0.4770     0.0000    -1.3470 oh         1 HDO      -0.606800
     14 O02          4.1500    -0.0000     0.3960 o          1 HDO      -0.518100
     15 H021        -0.3610    -0.8840     0.5110 h1         1 HDO       0.016700
     16 H022        -0.3610     0.8840     0.5110 h1         1 HDO       0.016700
     17 H031         1.8910     0.8850    -0.5110 hc         1 HDO       0.067700
     18 H032         1.8910    -0.8850    -0.5110 hc         1 HDO       0.067700
     19 H042         1.6790    -0.8850     1.9540 hc         1 HDO       0.062700
     20 H041         1.6790     0.8850     1.9540 hc         1 HDO       0.062700
     21 H071         4.0390    -0.8850     3.3160 hc         1 HDO       0.063700
     22 H072         4.0390     0.8850     3.3160 hc         1 HDO       0.063700
     23 H082         6.0670    -0.8850     1.9000 hc         1 HDO       0.055700
     24 H081         6.0670     0.8850     1.9000 hc         1 HDO       0.055700
     25 H092         6.3080    -0.8850     4.3610 hc         1 HDO       0.038700
     26 H091         6.3080     0.8850     4.3610 hc         1 HDO       0.038700
     27 H102         8.3360    -0.8850     2.9450 hc         1 HDO       0.043700
     28 H101         8.3360     0.8850     2.9450 hc         1 HDO       0.043700
     29 H111         8.5780    -0.8850     5.4060 hc         1 HDO       0.040700
     30 H112         8.5780     0.8850     5.4060 hc         1 HDO       0.040700
     31 H121        10.6050    -0.8850     3.9900 hc         1 HDO       0.041700
     32 H122        10.6050     0.8850     3.9900 hc         1 HDO       0.041700
     33 H131        10.8470    -0.8840     6.4510 hc         1 HDO       0.039700
     34 H132        10.8470     0.8840     6.4510 hc         1 HDO       0.039700
     35 H142        13.1540    -0.0000     6.5420 hc         1 HDO       0.032367
     36 H14         12.8750    -0.8850     5.0360 hc         1 HDO       0.032367
     37 H141        12.8750     0.8850     5.0360 hc         1 HDO       0.032367
     38 H011        -1.4190     0.0000    -1.3460 ho         1 HDO       0.401000
@<TRIPOS>BOND
     1     1     2 1
     2     1    13 1
     3     2     3 1
     4     3     4 1
     5    12    11 1
     6    14     4 2
     7     4     5 1
     8    11    10 1
     9     5     6 1
    10    10     9 1
    11     9     8 1
    12     6     7 1
    13     7     8 1
    14     1    15 1
    15     1    16 1
    16     2    17 1
    17     2    18 1
    18     3    19 1
    19     3    20 1
    20     5    21 1
    21     5    22 1
    22     6    23 1
    23     6    24 1
    24     7    25 1
    25     7    26 1
    26     8    27 1
    27     8    28 1
    28     9    29 1
    29     9    30 1
    30    10    31 1
    31    10    32 1
    32    11    33 1
    33    11    34 1
    34    12    35 1
    35    12    36 1
    36    12    37 1
    37    13    38 1
@<TRIPOS>SUBSTRUCTURE
     1 HDO         1 TEMP              0 ****  ****    0 ROOT
