@<TRIPOS>MOLECULE
molecule
   53    52     1     0     0
SMALL
bcc


@<TRIPOS>ATOM
      1 C1           0.0000     0.0000     0.0000 c3         1 HDR      -0.108100
      2 C2           1.5300     0.0000     0.0000 c3         1 HDR      -0.055400
      3 C3           2.0390     0.0000     1.4440 c3         1 HDR      -0.075400
      4 C4           3.5690    -0.0010     1.4430 c3         1 HDR      -0.083400
      5 C5           4.0790    -0.0010     2.8870 c3         1 HDR      -0.081400
      6 C6           5.6080    -0.0020     2.8870 c3         1 HDR      -0.081400
      7 C7           6.1180    -0.0020     4.3290 c3         1 HDR      -0.082400
      8 C8           7.6480    -0.0030     4.3300 c3         1 HDR      -0.082400
      9 C9           8.1580    -0.0030     5.7730 c3         1 HDR      -0.081400
     10 C10          9.6870    -0.0040     5.7730 c3         1 HDR      -0.082400
     11 C11         10.1970    -0.0040     7.2160 c3         1 HDR      -0.082400
     12 C12         11.7280    -0.0040     7.2160 c3         1 HDR      -0.081400
     13 C13         12.2370    -0.0040     8.6590 c3         1 HDR      -0.082400
     14 C14         13.7670    -0.0050     8.6600 c3         1 HDR      -0.081400
     15 C15         14.2760    -0.0050    10.1020 c3         1 HDR      -0.084400
     16 C16         15.8070    -0.0060    10.1020 c3         1 HDR      -0.092100
     17 S1          -0.6050     0.0010    -1.7110 s4         1 HDR       0.601700
     18 O1S         -0.4460     1.2970    -2.2680 o          1 HDR      -0.536200
     19 O2S         -2.1060     0.0010    -1.4610 oh         1 HDR      -0.627800
     20 H11         -0.3610    -0.8850     0.5100 h1         1 HDR       0.082700
     21 H12         -0.3610     0.8840     0.5110 h1         1 HDR       0.082700
     22 H21          1.8910     0.8850    -0.5110 hc         1 HDR       0.043200
     23 H22          1.8910    -0.8850    -0.5110 hc         1 HDR       0.043200
     24 H31          1.6770    -0.8840     1.9540 hc         1 HDR       0.044200
     25 H32          1.6790     0.8850     1.9540 hc         1 HDR       0.044200
     26 H41          3.9290    -0.8860     0.9330 hc         1 HDR       0.041200
     27 H42          3.9310     0.8830     0.9330 hc         1 HDR       0.041200
     28 H51          3.7180     0.8840     3.3970 hc         1 HDR       0.041700
     29 H52          3.7170    -0.8850     3.3980 hc         1 HDR       0.041700
     30 H61          5.9690    -0.8870     2.3760 hc         1 HDR       0.041200
     31 H62          5.9700     0.8820     2.3760 hc         1 HDR       0.041200
     32 H71          5.7560    -0.8860     4.8410 hc         1 HDR       0.041200
     33 H72          5.7580     0.8830     4.8400 hc         1 HDR       0.041200
     34 H81          8.0080    -0.8880     3.8200 hc         1 HDR       0.041200
     35 H82          8.0090     0.8810     3.8190 hc         1 HDR       0.041200
     36 H91          7.7960    -0.8870     6.2840 hc         1 HDR       0.041200
     37 H92          7.7970     0.8820     6.2830 hc         1 HDR       0.041200
     38 H101        10.0480    -0.8880     5.2620 hc         1 HDR       0.040700
     39 H102        10.0490     0.8810     5.2620 hc         1 HDR       0.040700
     40 H111         9.8360     0.8810     7.7260 hc         1 HDR       0.040700
     41 H112         9.8350    -0.8880     7.7270 hc         1 HDR       0.040700
     42 H121        12.0890     0.8800     6.7050 hc         1 HDR       0.041200
     43 H122        12.0880    -0.8890     6.7060 hc         1 HDR       0.041200
     44 H131        11.8750    -0.8880     9.1700 hc         1 HDR       0.040700
     45 H132        11.8760     0.8810     9.1690 hc         1 HDR       0.040700
     46 H141        14.1290     0.8790     8.1490 hc         1 HDR       0.040700
     47 H142        14.1280    -0.8900     8.1500 hc         1 HDR       0.040700
     48 H151        13.9150    -0.8890    10.6130 hc         1 HDR       0.039700
     49 H152        13.9160     0.8800    10.6120 hc         1 HDR       0.039700
     50 H161        16.1690     0.8780     9.5910 hc         1 HDR       0.032367
     51 H162        16.1680    -0.0060    11.1240 hc         1 HDR       0.032367
     52 H163        16.1670    -0.8910     9.5920 hc         1 HDR       0.032367
     53 HOS2        -2.5380    -0.4910    -2.1390 ho         1 HDR       0.456000
@<TRIPOS>BOND
     1     1     2 1
     2     1    17 1
     3     1    20 1
     4     1    21 1
     5     2     3 1
     6     2    22 1
     7     2    23 1
     8     3     4 1
     9     3    24 1
    10     3    25 1
    11     4     5 1
    12     4    26 1
    13     4    27 1
    14     5     6 1
    15     5    28 1
    16     5    29 1
    17     6     7 1
    18     6    30 1
    19     6    31 1
    20     7     8 1
    21     7    32 1
    22     7    33 1
    23     8     9 1
    24     8    34 1
    25     8    35 1
    26     9    10 1
    27     9    36 1
    28     9    37 1
    29    10    11 1
    30    10    38 1
    31    10    39 1
    32    11    12 1
    33    11    40 1
    34    11    41 1
    35    12    13 1
    36    12    42 1
    37    12    43 1
    38    13    14 1
    39    13    44 1
    40    13    45 1
    41    14    15 1
    42    14    46 1
    43    14    47 1
    44    15    16 1
    45    15    48 1
    46    15    49 1
    47    16    50 1
    48    16    51 1
    49    16    52 1
    50    17    18 2
    51    17    19 1
    52    19    53 1
@<TRIPOS>SUBSTRUCTURE
     1 HDR         1 TEMP              0 ****  ****    0 ROOT
