@<TRIPOS>MOLECULE
molecule
   53    52     1     0     0
SMALL
bcc


@<TRIPOS>ATOM
      1 C1           0.0000     0.0000     0.0000 c3         1 HDS      -0.256600
      2 C2           1.5300     0.0000     0.0000 c3         1 HDS      -0.058400
      3 C3           2.0410     0.0000     1.4410 c3         1 HDS      -0.075400
      4 C4           3.5700     0.0000     1.4420 c3         1 HDS      -0.084400
      5 C5           4.0820    -0.0010     2.8830 c3         1 HDS      -0.082400
      6 C6           5.6110    -0.0010     2.8830 c3         1 HDS      -0.082400
      7 C7           6.1220    -0.0010     4.3250 c3         1 HDS      -0.082400
      8 C8           7.6510    -0.0010     4.3250 c3         1 HDS      -0.082400
      9 C9           8.1620    -0.0010     5.7670 c3         1 HDS      -0.082400
     10 C10          9.6920    -0.0010     5.7670 c3         1 HDS      -0.082400
     11 C11         10.2020    -0.0020     7.2080 c3         1 HDS      -0.082400
     12 C12         11.7320    -0.0020     7.2080 c3         1 HDS      -0.082400
     13 C13         12.2430    -0.0020     8.6500 c3         1 HDS      -0.082400
     14 C14         13.7720    -0.0020     8.6500 c3         1 HDS      -0.081400
     15 C15         14.2840    -0.0020    10.0920 c3         1 HDS      -0.084400
     16 C16         15.8130    -0.0020    10.0920 c3         1 HDS      -0.092100
     17 S1          -0.6050     0.0010    -1.7090 s6         1 HDS       1.250800
     18 O1S         -0.3600     1.2450    -2.3500 o          1 HDS      -0.707867
     19 O2S         -0.3590    -1.2410    -2.3530 o          1 HDS      -0.707867
     20 O3S         -2.1180     0.0010    -1.5430 o          1 HDS      -0.707867
     21 H11         -0.3610     0.8840     0.5110 h1         1 HDS       0.073700
     22 H12         -0.3610    -0.8850     0.5110 h1         1 HDS       0.073700
     23 H21          1.8900     0.8840    -0.5110 hc         1 HDS       0.039700
     24 H22          1.8900    -0.8840    -0.5110 hc         1 HDS       0.039700
     25 H31          1.6800     0.8840     1.9520 hc         1 HDS       0.035700
     26 H32          1.6800    -0.8840     1.9520 hc         1 HDS       0.035700
     27 H41          3.9310    -0.8840     0.9300 hc         1 HDS       0.038700
     28 H42          3.9310     0.8850     0.9320 hc         1 HDS       0.038700
     29 H51          3.7210    -0.8860     3.3940 hc         1 HDS       0.037700
     30 H52          3.7210     0.8830     3.3950 hc         1 HDS       0.037700
     31 H61          5.9720    -0.8850     2.3730 hc         1 HDS       0.039700
     32 H62          5.9720     0.8830     2.3730 hc         1 HDS       0.039700
     33 H71          5.7600    -0.8850     4.8360 hc         1 HDS       0.039700
     34 H72          5.7600     0.8840     4.8360 hc         1 HDS       0.039700
     35 H81          8.0120    -0.8850     3.8140 hc         1 HDS       0.039700
     36 H82          8.0120     0.8830     3.8140 hc         1 HDS       0.039700
     37 H91          7.8010     0.8830     6.2780 hc         1 HDS       0.039700
     38 H92          7.8010    -0.8850     6.2780 hc         1 HDS       0.039700
     39 H101        10.0530     0.8840     5.2570 hc         1 HDS       0.040700
     40 H102        10.0530    -0.8850     5.2550 hc         1 HDS       0.040700
     41 H111         9.8410     0.8820     7.7200 hc         1 HDS       0.040700
     42 H112         9.8410    -0.8870     7.7180 hc         1 HDS       0.040700
     43 H121        12.0920    -0.8860     6.6970 hc         1 HDS       0.040700
     44 H122        12.0920     0.8820     6.6970 hc         1 HDS       0.040700
     45 H131        11.8820     0.8820     9.1600 hc         1 HDS       0.040700
     46 H132        11.8820    -0.8860     9.1600 hc         1 HDS       0.040700
     47 H141        14.1330    -0.8860     8.1390 hc         1 HDS       0.040700
     48 H142        14.1330     0.8820     8.1390 hc         1 HDS       0.040700
     49 H151        13.9230     0.8820    10.6030 hc         1 HDS       0.039700
     50 H152        13.9230    -0.8860    10.6030 hc         1 HDS       0.039700
     51 H161        16.1740    -0.8860     9.5820 hc         1 HDS       0.031700
     52 H162        16.1730    -0.0020    11.1140 hc         1 HDS       0.031700
     53 H163        16.1740     0.8830     9.5820 hc         1 HDS       0.031700
@<TRIPOS>BOND
     1     1     2 1
     2     1    17 1
     3     1    21 1
     4     1    22 1
     5     2     3 1
     6     2    23 1
     7     2    24 1
     8     3     4 1
     9     3    25 1
    10     3    26 1
    11     4     5 1
    12     4    27 1
    13     4    28 1
    14     5     6 1
    15     5    29 1
    16     5    30 1
    17     6     7 1
    18     6    31 1
    19     6    32 1
    20     7     8 1
    21     7    33 1
    22     7    34 1
    23     8     9 1
    24     8    35 1
    25     8    36 1
    26     9    10 1
    27     9    37 1
    28     9    38 1
    29    10    11 1
    30    10    39 1
    31    10    40 1
    32    11    12 1
    33    11    41 1
    34    11    42 1
    35    12    13 1
    36    12    43 1
    37    12    44 1
    38    13    14 1
    39    13    45 1
    40    13    46 1
    41    14    15 1
    42    14    47 1
    43    14    48 1
    44    15    16 1
    45    15    49 1
    46    15    50 1
    47    16    51 1
    48    16    52 1
    49    16    53 1
    50    17    18 1
    51    17    19 1
    52    17    20 1
@<TRIPOS>SUBSTRUCTURE
     1 HDS         1 TEMP              0 ****  ****    0 ROOT
