@<TRIPOS>MOLECULE
HDS
   53    52     1     0     0
SMALL
bcc


@<TRIPOS>ATOM
      1 C1         -0.0040    0.0010   -0.0290 c3        1 HDS     -0.290600
      2 C2          1.4960   -0.0000    0.0140 c3        1 HDS     -0.038400
      3 C3          2.0270    0.0000    1.4320 c3        1 HDS     -0.073400
      4 C4          3.5410   -0.0000    1.4560 c3        1 HDS     -0.079400
      5 C5          4.0730   -0.0010    2.8730 c3        1 HDS     -0.078400
      6 C6          5.5860   -0.0010    2.8960 c3        1 HDS     -0.079400
      7 C7          6.1180   -0.0010    4.3130 c3        1 HDS     -0.078400
      8 C8          7.6310   -0.0010    4.3340 c3        1 HDS     -0.079400
      9 C9          8.1620   -0.0010    5.7520 c3        1 HDS     -0.078400
     10 C10         9.6760   -0.0010    5.7730 c3        1 HDS     -0.079400
     11 C11        10.2070   -0.0020    7.1900 c3        1 HDS     -0.078400
     12 C12        11.7200   -0.0020    7.2110 c3        1 HDS     -0.079400
     13 C13        12.2510   -0.0020    8.6290 c3        1 HDS     -0.079400
     14 C14        13.7640   -0.0020    8.6490 c3        1 HDS     -0.079400
     15 C15        14.2960   -0.0020   10.0670 c3        1 HDS     -0.080400
     16 C16        15.8030   -0.0030   10.0920 c3        1 HDS     -0.092100
     17 S1         -0.6420    0.0010   -1.6910 s6        1 HDS      1.426800
     18 O1S        -0.1390    1.1850   -2.2840 o         1 HDS     -0.753533
     19 O2S        -0.1470   -1.1880   -2.2810 o         1 HDS     -0.753533
     20 O3S        -2.0480    0.0060   -1.5130 o         1 HDS     -0.753533
     21 H11        -0.4000    0.8980    0.5050 h1        1 HDS      0.060700
     22 H12        -0.4010   -0.8950    0.5050 h1        1 HDS      0.060700
     23 H21         1.8810    0.9040   -0.5310 hc        1 HDS      0.046700
     24 H22         1.8800   -0.9060   -0.5300 hc        1 HDS      0.046700
     25 H31         1.6430   -0.9020    1.9770 hc        1 HDS      0.028700
     26 H32         1.6430    0.9020    1.9760 hc        1 HDS      0.028700
     27 H41         3.9240   -0.9030    0.9100 hc        1 HDS      0.037700
     28 H42         3.9240    0.9020    0.9100 hc        1 HDS      0.037700
     29 H51         3.6890    0.9020    3.4180 hc        1 HDS      0.034700
     30 H52         3.6890   -0.9030    3.4180 hc        1 HDS      0.034700
     31 H61         5.9700   -0.9030    2.3500 hc        1 HDS      0.037700
     32 H62         5.9700    0.9020    2.3500 hc        1 HDS      0.037700
     33 H71         5.7340    0.9010    4.8580 hc        1 HDS      0.036700
     34 H72         5.7340   -0.9030    4.8580 hc        1 HDS      0.036700
     35 H81         8.0140   -0.9030    3.7890 hc        1 HDS      0.038700
     36 H82         8.0150    0.9020    3.7890 hc        1 HDS      0.038700
     37 H91         7.7790   -0.9040    6.2970 hc        1 HDS      0.037700
     38 H92         7.7790    0.9010    6.2970 hc        1 HDS      0.037700
     39 H101       10.0590    0.9010    5.2280 hc        1 HDS      0.038700
     40 H102       10.0590   -0.9040    5.2270 hc        1 HDS      0.038700
     41 H111        9.8230   -0.9040    7.7350 hc        1 HDS      0.038700
     42 H112        9.8230    0.9010    7.7350 hc        1 HDS      0.038700
     43 H121       12.1040    0.9010    6.6660 hc        1 HDS      0.038700
     44 H122       12.1030   -0.9040    6.6660 hc        1 HDS      0.038700
     45 H131       11.8670   -0.9040    9.1730 hc        1 HDS      0.038700
     46 H132       11.8670    0.9010    9.1740 hc        1 HDS      0.038700
     47 H141       14.1480   -0.9040    8.1040 hc        1 HDS      0.038700
     48 H142       14.1480    0.9000    8.1040 hc        1 HDS      0.038700
     49 H151       13.9100   -0.9050   10.6100 hc        1 HDS      0.037700
     50 H152       13.9100    0.9000   10.6100 hc        1 HDS      0.037700
     51 H161       16.2060    0.9020    9.5760 hc        1 HDS      0.031033
     52 H162       16.2060   -0.9070    9.5760 hc        1 HDS      0.031033
     53 H163       16.1740   -0.0030   11.1460 hc        1 HDS      0.031033
@<TRIPOS>BOND
     1    1    2 1   
     2    1   17 1   
     3    1   21 1   
     4    1   22 1   
     5    2    3 1   
     6    2   23 1   
     7    2   24 1   
     8    3    4 1   
     9    3   25 1   
    10    3   26 1   
    11    4    5 1   
    12    4   27 1   
    13    4   28 1   
    14    5    6 1   
    15    5   29 1   
    16    5   30 1   
    17    6    7 1   
    18    6   31 1   
    19    6   32 1   
    20    7    8 1   
    21    7   33 1   
    22    7   34 1   
    23    8    9 1   
    24    8   35 1   
    25    8   36 1   
    26    9   10 1   
    27    9   37 1   
    28    9   38 1   
    29   10   11 1   
    30   10   39 1   
    31   10   40 1   
    32   11   12 1   
    33   11   41 1   
    34   11   42 1   
    35   12   13 1   
    36   12   43 1   
    37   12   44 1   
    38   13   14 1   
    39   13   45 1   
    40   13   46 1   
    41   14   15 1   
    42   14   47 1   
    43   14   48 1   
    44   15   16 1   
    45   15   49 1   
    46   15   50 1   
    47   16   51 1   
    48   16   52 1   
    49   16   53 1   
    50   17   18 1   
    51   17   19 1   
    52   17   20 1   
@<TRIPOS>SUBSTRUCTURE
     1 HDS         1 TEMP              0 ****  ****    0 ROOT
