@<TRIPOS>MOLECULE
HDT
   41    44     1     0     0
SMALL
bcc


@<TRIPOS>ATOM
      1 C22          0.0000     0.0000     0.0000 ca         1 HDT      -0.149000
      2 N1           7.3220    -0.9500    -3.8970 na         1 HDT       0.663700
      3 C2           8.3140    -0.9010    -2.9660 cc         1 HDT      -0.312300
      4 C6           7.6170    -0.8830    -5.2320 cc         1 HDT      -0.235300
      5 C5           8.9570    -0.7490    -5.6410 cc         1 HDT      -0.014000
      6 C4           9.9400    -0.6940    -4.7020 cd         1 HDT      -0.125000
      7 C3           9.6050    -0.7720    -3.3410 cd         1 HDT      -0.060000
      8 C11          5.6450    -1.9640    -1.4780 ca         1 HDT      -0.393600
      9 C10          5.1730    -1.1930    -2.5500 ca         1 HDT       0.604100
     10 C9           5.9540    -1.0800    -3.7930 cc         1 HDT      -0.556900
     11 C8           5.4600    -1.0790    -5.0800 cd         1 HDT       0.124600
     12 C12          4.8770    -2.0390    -0.3340 ca         1 HDT       0.494200
     13 C17          1.3890     0.0000     0.0000 ca         1 HDT       0.125600
     14 C14          3.3010    -0.6650    -1.3070 ca         1 HDT       0.684900
     15 N15          3.9990    -0.5690    -2.4260 nb         1 HDT      -0.651000
     16 C18          2.0790     0.0000     1.2050 ca         1 HDT      -0.149000
     17 C19          1.3840     0.0010     2.3980 ca         1 HDT       0.031500
     18 C20          0.0020     0.0010     2.3950 ca         1 HDT      -0.268500
     19 O26          0.0170    -0.5250     4.8860 o          1 HDT      -0.501800
     20 S23         -0.8820     0.0000     3.9190 sy         1 HDT       0.935200
     21 O25         -2.1680    -0.5240     3.6200 o          1 HDT      -0.501800
     22 N24         -1.1310     1.5800     4.3480 nz         1 HDT      -0.134500
     23 C21         -0.6890    -0.0040     1.1970 ca         1 HDT       0.031500
     24 N16          2.0900    -0.0000    -1.2090 nu         1 HDT      -0.276300
     25 N13          3.7250    -1.3870    -0.2810 nb         1 HDT      -0.702000
     26 N7           6.4810    -0.9580    -5.9180 nd         1 HDT      -0.240600
     27 H22         -0.6500     0.0060    -0.8670 ha         1 HDT       0.145500
     28 H4          10.9760    -0.5910    -5.0030 ha         1 HDT       0.125000
     29 H3          10.3840    -0.7290    -2.5900 ha         1 HDT       0.121000
     30 H11          6.5910    -2.4880    -1.5460 ha         1 HDT       0.138000
     31 H8           4.4160    -1.1630    -5.3590 h4         1 HDT       0.147000
     32 H12          5.2130    -2.6260     0.5120 h4         1 HDT      -0.008900
     33 H18          3.1610     0.0610     1.2090 ha         1 HDT       0.145500
     34 H19          1.9230    -0.0050     3.3380 ha         1 HDT       0.123000
     35 H241        -1.6340     1.6160     5.2120 hn         1 HDT       0.311800
     36 H242        -1.6610     2.0400     3.6340 hn         1 HDT       0.311800
     37 H21         -1.7720    -0.0210     1.1970 ha         1 HDT       0.123000
     38 H16          1.7310     0.5040    -1.9950 hn         1 HDT       0.308800
     39 H2           8.0650    -0.9600    -1.9130 h4         1 HDT       0.141000
     40 H243        -0.2480     2.0370     4.4660 hn         1 HDT       0.311800
     41 H5           9.2030    -0.6900    -6.6940 ha         1 HDT       0.132000
@<TRIPOS>BOND
     1     1    13 ar  
     2     1    23 ar  
     3     1    27 1   
     4     2     3 1   
     5     2     4 1   
     6     2    10 1   
     7     3     7 2   
     8     3    39 1   
     9     4     5 1   
    10     4    26 2   
    11     5     6 2   
    12     5    41 1   
    13     6     7 1   
    14     6    28 1   
    15     7    29 1   
    16     8     9 ar  
    17     8    12 ar  
    18     8    30 1   
    19     9    10 1   
    20     9    15 ar  
    21    10    11 2   
    22    11    26 1   
    23    11    31 1   
    24    12    25 ar  
    25    12    32 1   
    26    13    16 ar  
    27    13    24 1   
    28    14    15 ar  
    29    14    24 1   
    30    14    25 ar  
    31    16    17 ar  
    32    16    33 1   
    33    17    18 ar  
    34    17    34 1   
    35    18    20 1   
    36    18    23 ar  
    37    19    20 2   
    38    20    21 2   
    39    20    22 1   
    40    22    35 1   
    41    22    36 1   
    42    22    40 1   
    43    23    37 1   
    44    24    38 1   
@<TRIPOS>SUBSTRUCTURE
     1 HDT         1 TEMP              0 ****  ****    0 ROOT
