@<TRIPOS>MOLECULE
HDU
   33    35     1     0     0
SMALL
bcc


@<TRIPOS>ATOM
      1 O20          0.0000     0.0000     0.0000 o          1 HDU      -0.565100
      2 C18          1.2110     0.0000     0.0000 c          1 HDU       0.541100
      3 C19          1.9640     0.0000     1.3060 c3         1 HDU      -0.068100
      4 N17          1.8850     0.0010    -1.1670 ns         1 HDU      -0.103400
      5 C15          1.1920     0.0020    -2.3700 ca         1 HDU       0.583900
      6 N16          1.8700     0.0090    -3.5050 nb         1 HDU      -0.664000
      7 N14         -0.1320     0.0010    -2.3500 nb         1 HDU      -0.613000
      8 C13         -0.8340     0.0030    -3.4750 ca         1 HDU       0.480200
      9 C12         -0.1700     0.0040    -4.6860 ca         1 HDU      -0.408600
     10 C11          1.2330     0.0040    -4.6770 ca         1 HDU       0.574100
     11 C7           1.9880     0.0050    -5.9410 cc         1 HDU      -0.526900
     12 N6           1.6850    -0.7030    -7.0830 na         1 HDU       0.661700
     13 C5           2.6490    -0.4050    -8.0070 cc         1 HDU      -0.244300
     14 N8           3.5080     0.4480    -7.4590 nd         1 HDU      -0.248600
     15 C9           3.1350     0.7210    -6.2140 cd         1 HDU       0.124400
     16 C10          3.8470     1.6460    -5.2610 c3         1 HDU       0.089100
     17 C4           2.5930    -0.9940    -9.2850 cc         1 HDU      -0.020000
     18 C3           1.5790    -1.8520    -9.5800 cd         1 HDU      -0.134000
     19 C2           0.6060    -2.1380    -8.6110 cd         1 HDU      -0.077000
     20 C1           0.6740    -1.5640    -7.3890 cc         1 HDU      -0.299300
     21 H191         2.5960    -0.8780     1.3580 hc         1 HDU       0.024367
     22 H192         1.2600    -0.0130     2.1290 hc         1 HDU       0.024367
     23 H193         2.5770     0.8910     1.3690 hc         1 HDU       0.024367
     24 H17          2.8860    -0.0170    -1.1660 hn         1 HDU       0.178500
     25 H13         -1.9170     0.0020    -3.4450 h4         1 HDU      -0.013900
     26 H12         -0.7190     0.0030    -5.6200 ha         1 HDU       0.127000
     27 H101         4.6410     2.1630    -5.7860 hc         1 HDU       0.015033
     28 H102         4.2680     1.0700    -4.4460 hc         1 HDU       0.015033
     29 H103         3.1430     2.3690    -4.8670 hc         1 HDU       0.015033
     30 H4           3.3500    -0.7660   -10.0260 ha         1 HDU       0.125000
     31 H3           1.5240    -2.3130   -10.5590 ha         1 HDU       0.117000
     32 H2          -0.2030    -2.8210    -8.8420 ha         1 HDU       0.117000
     33 H1          -0.0810    -1.7900    -6.6470 h4         1 HDU       0.146000
@<TRIPOS>BOND
     1     1     2 2   
     2     2     3 1   
     3     2     4 1   
     4     3    21 1   
     5     3    22 1   
     6     3    23 1   
     7     4     5 1   
     8     4    24 1   
     9     5     6 ar  
    10     5     7 ar  
    11     6    10 ar  
    12     7     8 ar  
    13     8     9 ar  
    14     8    25 1   
    15     9    10 ar  
    16     9    26 1   
    17    10    11 1   
    18    11    12 1   
    19    11    15 2   
    20    12    13 1   
    21    12    20 1   
    22    13    14 2   
    23    13    17 1   
    24    14    15 1   
    25    15    16 1   
    26    16    27 1   
    27    16    28 1   
    28    16    29 1   
    29    17    18 2   
    30    17    30 1   
    31    18    19 1   
    32    18    31 1   
    33    19    20 2   
    34    19    32 1   
    35    20    33 1   
@<TRIPOS>SUBSTRUCTURE
     1 HDU         1 TEMP              0 ****  ****    0 ROOT
