@<TRIPOS>MOLECULE
HDX
   29    29     1     0     0
SMALL
bcc


@<TRIPOS>ATOM
      1 OAA          0.0000     0.0000     0.0000 o          1 HDX      -0.736500
      2 OAB         -0.1090     2.4380     1.8930 o          1 HDX      -0.728833
      3 OAC          4.4600     3.7000    -5.2720 o          1 HDX      -0.774500
      4 OAD          1.2370    -0.0000    -2.4140 oh         1 HDX      -0.446100
      5 OAE          2.1560     2.4500     3.0070 o          1 HDX      -0.728833
      6 OAF          0.1850     1.7200     4.4050 o          1 HDX      -0.728833
      7 OAG          6.5850     2.3980    -6.1100 o          1 HDX      -0.774500
      8 OAH          6.5400     3.5280    -3.8540 o          1 HDX      -0.774500
      9 CAI          3.9610     0.0000     0.0000 cc         1 HDX      -0.264000
     10 CAJ          3.2640     0.0000     1.1580 cd         1 HDX      -0.151400
     11 CAK          4.4230     1.4380    -2.8970 c3         1 HDX       0.289400
     12 CAL          4.0530     0.0000    -2.5230 c3         1 HDX      -0.002200
     13 CAM          1.1740     0.0000     2.4210 c3         1 HDX      -0.051200
     14 OAN          5.1530     1.4370    -4.1260 os         1 HDX      -0.497200
     15 CAO          1.2210    -0.0000    -0.0100 c          1 HDX       0.548700
     16 CAP          3.2830     0.0010    -1.2280 cc         1 HDX      -0.024200
     17 CAQ          1.9170     0.0010    -1.2360 cd         1 HDX      -0.089100
     18 NAR          1.9040     0.0000     1.1510 n          1 HDX       0.291000
     19 PAS          0.8710     1.7190     2.9490 p5         1 HDX       0.411700
     20 PAT          5.7030     2.7830    -4.8190 p5         1 HDX       0.688900
     21 HOAD         0.7940    -0.8260    -2.5210 ho         1 HDX       0.343000
     22 HAI          5.0440    -0.0000     0.0200 ha         1 HDX       0.101000
     23 HAJ          3.7940    -0.0010     2.1030 h4         1 HDX       0.114000
     24 HAK          5.0340     1.8690    -2.1140 h1         1 HDX      -0.014300
     25 HAKA         3.5190     2.0240    -3.0140 h1         1 HDX      -0.014300
     26 HAL          4.9570    -0.5860    -2.4050 hc         1 HDX      -0.008300
     27 HALA         3.4430    -0.4320    -3.3070 hc         1 HDX      -0.008300
     28 HAM          1.7610    -0.5110     3.1750 h1         1 HDX       0.014700
     29 HAMA         0.2270    -0.5110     2.2930 h1         1 HDX       0.014700
@<TRIPOS>BOND
     1     1    15 2   
     2     2    19 1   
     3     3    20 1   
     4     4    17 1   
     5     4    21 1   
     6     5    19 1   
     7     6    19 1   
     8     7    20 1   
     9     8    20 1   
    10     9    10 2   
    11     9    16 1   
    12     9    22 1   
    13    10    18 1   
    14    10    23 1   
    15    11    12 1   
    16    11    14 1   
    17    11    24 1   
    18    11    25 1   
    19    12    16 1   
    20    12    26 1   
    21    12    27 1   
    22    13    18 1   
    23    13    19 1   
    24    13    28 1   
    25    13    29 1   
    26    14    20 1   
    27    15    17 1   
    28    15    18 1   
    29    16    17 2   
@<TRIPOS>SUBSTRUCTURE
     1 HDX         1 TEMP              0 ****  ****    0 ROOT
