@<TRIPOS>MOLECULE
HDY
   57    60     1     0     0
SMALL
bcc


@<TRIPOS>ATOM
      1 C10          0.0000     0.0000     0.0000 c3         1 HDY       0.089100
      2 C9           1.5070     0.0000     0.0000 cc         1 HDY       0.125400
      3 N8           2.2850     0.0000     1.0750 nc         1 HDY      -0.248600
      4 C5           3.5610     0.0000     0.7050 cd         1 HDY      -0.244300
      5 C4           4.7570     0.0060     1.4480 cd         1 HDY      -0.020000
      6 C3           5.9500     0.0050     0.7920 cc         1 HDY      -0.135000
      7 C2           5.9720    -0.0010    -0.6110 cc         1 HDY      -0.079000
      8 N6           3.6150    -0.0050    -0.6630 na         1 HDY       0.661700
      9 C1           4.8150    -0.0060    -1.3090 cd         1 HDY      -0.298300
     10 C7           2.3150    -0.0100    -1.1180 cd         1 HDY      -0.525900
     11 C11          1.8730    -0.0160    -2.5230 ca         1 HDY       0.594100
     12 C12          2.5390     0.7570    -3.4830 ca         1 HDY      -0.439600
     13 C13          2.0890     0.7190    -4.7880 ca         1 HDY       0.497200
     14 N14          1.0480    -0.0420    -5.0920 nb         1 HDY      -0.698000
     15 N16          0.8280    -0.7530    -2.9030 nb         1 HDY      -0.684000
     16 C15          0.4340    -0.7640    -4.1660 ca         1 HDY       0.709900
     17 N17         -0.6500    -1.5440    -4.5290 nu         1 HDY      -0.278300
     18 C18         -1.0130    -1.6540    -5.8760 ca         1 HDY      -0.043400
     19 C19         -2.3510    -1.7880    -6.2260 ca         1 HDY      -0.075000
     20 C20         -2.7090    -1.8980    -7.5560 ca         1 HDY      -0.164000
     21 C23         -0.0360    -1.6320    -6.8630 ca         1 HDY      -0.075000
     22 C22         -0.3960    -1.7470    -8.1920 ca         1 HDY      -0.164000
     23 C21         -1.7330    -1.8740    -8.5410 ca         1 HDY       0.123100
     24 O24         -2.0860    -1.9810    -9.8500 os         1 HDY      -0.276900
     25 C25         -0.8760    -1.9250   -10.6100 c3         1 HDY       0.151400
     26 C26         -1.2050    -2.0420   -12.0990 c3         1 HDY       0.173100
     27 O31         -2.0590    -0.9640   -12.4850 oh         1 HDY      -0.562800
     28 C27          0.0900    -1.9810   -12.9130 c3         1 HDY       0.124800
     29 N28         -0.2260    -2.0940   -14.3430 n3         1 HDY      -0.507600
     30 C30          1.0530    -2.0300   -15.0630 c3         1 HDY       0.164100
     31 C29         -0.7610    -3.4450   -14.5530 c3         1 HDY       0.164100
     32 H101        -0.3610     0.7840    -0.6550 hc         1 HDY       0.015033
     33 H102        -0.3610    -0.9590    -0.3520 hc         1 HDY       0.015033
     34 H103        -0.3610     0.1750     1.0060 hc         1 HDY       0.015033
     35 H4           4.7280     0.0110     2.5310 ha         1 HDY       0.125000
     36 H3           6.8780     0.0090     1.3510 ha         1 HDY       0.117000
     37 H2           6.9190    -0.0020    -1.1370 ha         1 HDY       0.116000
     38 H1           4.8410    -0.0100    -2.3920 h4         1 HDY       0.146000
     39 H12          3.3890     1.3710    -3.2080 ha         1 HDY       0.127000
     40 H13          2.5810     1.3050    -5.5540 h4         1 HDY      -0.018900
     41 H17         -1.1550    -2.0540    -3.8320 hn         1 HDY       0.292800
     42 H19         -3.1130    -1.8060    -5.4570 ha         1 HDY       0.119000
     43 H20         -3.7520    -2.0000    -7.8290 ha         1 HDY       0.123500
     44 H23          1.0070    -1.5320    -6.5900 ha         1 HDY       0.119000
     45 H22          0.3650    -1.7290    -8.9620 ha         1 HDY       0.123500
     46 H251        -0.2270    -2.7420   -10.3170 h1         1 HDY       0.020200
     47 H252        -0.3760    -0.9830   -10.4230 h1         1 HDY       0.020200
     48 H26         -1.7050    -2.9850   -12.2860 h1         1 HDY       0.011700
     49 H31         -2.9130    -1.3020   -12.6990 ho         1 HDY       0.392000
     50 H271         0.7380    -2.7980   -12.6200 h1         1 HDY       0.019700
     51 H272         0.5900    -1.0390   -12.7260 h1         1 HDY       0.019700
     52 H301         1.7010    -2.8280   -14.7210 h1         1 HDY       0.003700
     53 H302         1.5270    -1.0740   -14.8730 h1         1 HDY       0.003700
     54 H303         0.8760    -2.1390   -16.1260 h1         1 HDY       0.003700
     55 H291        -0.7630    -3.6720   -15.6130 h1         1 HDY       0.003700
     56 H292        -1.7740    -3.4950   -14.1720 h1         1 HDY       0.003700
     57 H293        -0.1420    -4.1640   -14.0310 h1         1 HDY       0.003700
@<TRIPOS>BOND
     1     1     2 1   
     2     1    32 1   
     3     1    33 1   
     4     1    34 1   
     5     2     3 1   
     6     2    10 2   
     7     3     4 2   
     8     4     5 1   
     9     4     8 1   
    10     5     6 2   
    11     5    35 1   
    12     6     7 1   
    13     6    36 1   
    14     7     9 2   
    15     7    37 1   
    16     8     9 1   
    17     8    10 1   
    18     9    38 1   
    19    10    11 1   
    20    11    12 ar  
    21    11    15 ar  
    22    12    13 ar  
    23    12    39 1   
    24    13    14 ar  
    25    13    40 1   
    26    14    16 ar  
    27    15    16 ar  
    28    16    17 1   
    29    17    18 1   
    30    17    41 1   
    31    18    19 ar  
    32    18    21 ar  
    33    19    20 ar  
    34    19    42 1   
    35    20    23 ar  
    36    20    43 1   
    37    21    22 ar  
    38    21    44 1   
    39    22    23 ar  
    40    22    45 1   
    41    23    24 1   
    42    24    25 1   
    43    25    26 1   
    44    25    46 1   
    45    25    47 1   
    46    26    27 1   
    47    26    28 1   
    48    26    48 1   
    49    27    49 1   
    50    28    29 1   
    51    28    50 1   
    52    28    51 1   
    53    29    30 1   
    54    29    31 1   
    55    30    52 1   
    56    30    53 1   
    57    30    54 1   
    58    31    55 1   
    59    31    56 1   
    60    31    57 1   
@<TRIPOS>SUBSTRUCTURE
     1 HDY         1 TEMP              0 ****  ****    0 ROOT
