@<TRIPOS>MOLECULE
HDZ
    2     1     1     0     0
SMALL
bcc


@<TRIPOS>ATOM
      1 N6A          0.0000     0.0000    -0.5160 n1         1 HDZ       0.000000
      2 N6B          0.0000     0.0000     0.5160 n1         1 HDZ      -0.000000
@<TRIPOS>BOND
     1     1     2 3   
@<TRIPOS>SUBSTRUCTURE
     1 HDZ         1 TEMP              0 ****  ****    0 ROOT
