@<TRIPOS>MOLECULE
HE0
   56    56     1     0     0
SMALL
bcc


@<TRIPOS>ATOM
      1 S1           0.0000     0.0000     0.0000 ss         1 HE0      -0.490200
      2 C2           1.8360     0.0000     0.0000 c3         1 HE0       0.129100
      3 C3           2.1960     0.0000     1.4980 c3         1 HE0      -0.007500
      4 N4           1.0190     0.0920     2.3670 n7         1 HE0      -0.595200
      5 C5          -0.1570    -0.5770     1.7420 c3         1 HE0       0.247600
      6 C6          -1.4650    -0.0910     2.3690 c3         1 HE0      -0.089300
      7 C7          -1.5950     1.3970     2.1700 c          1 HE0       0.680900
      8 N8          -2.5940    -0.7690     1.7290 ns         1 HE0      -0.163900
      9 C9          -3.7590    -0.9120     2.3930 c          1 HE0       0.576100
     10 O10         -3.8710    -0.4790     3.5200 o          1 HE0      -0.661100
     11 C11         -4.9210    -1.6110     1.7350 c3         1 HE0      -0.097400
     12 C12         -6.1110    -1.6370     2.6970 c3         1 HE0      -0.014400
     13 C13         -7.2900    -2.3460     2.0280 c3         1 HE0      -0.043400
     14 C14         -8.4800    -2.3740     2.9900 c3         1 HE0      -0.022400
     15 C15         -9.6600    -3.0830     2.3230 c3         1 HE0      -0.124300
     16 C16        -10.7900    -3.2190     3.3100 c          1 HE0       0.976600
     17 O17        -10.6050    -3.9010     4.4510 o          1 HE0      -0.873300
     18 O18        -11.8620    -2.7120     3.0760 o          1 HE0      -0.873300
     19 N19        -10.1110    -2.2980     1.1700 ns         1 HE0      -0.008900
     20 C20        -10.7560    -2.9050     0.1540 c          1 HE0       0.519100
     21 O21        -10.9630    -4.1000     0.1930 o          1 HE0      -0.673100
     22 C22        -11.2210    -2.0990    -1.0330 c3         1 HE0      -0.143200
     23 N23        -11.8900    -2.9840    -1.9950 nz         1 HE0       0.112400
     24 C24          2.3750    -1.2590    -0.6840 c3         1 HE0      -0.001600
     25 C25          2.3760     1.2560    -0.6870 c3         1 HE0      -0.001600
     26 C26          2.9400    -1.2720     1.8200 c          1 HE0       0.963600
     27 O27          4.2460    -1.3760     1.5320 o          1 HE0      -0.882800
     28 O28          2.3590    -2.1960     2.3360 o          1 HE0      -0.882800
     29 O29         -2.5340     1.8450     1.5570 o          1 HE0      -0.582100
     30 H3           2.8410     0.8470     1.6990 h1         1 HE0       0.056700
     31 HN4          1.2190    -0.3400     3.2470 hn         1 HE0       0.289800
     32 H5          -0.0650    -1.6550     1.8020 h2         1 HE0       0.078700
     33 H6          -1.4630    -0.3140     3.4290 h1         1 HE0       0.076700
     34 H7          -0.8710     2.0680     2.6170 h4         1 HE0      -0.020800
     35 HN8         -2.4980    -1.1380     0.8040 hn         1 HE0       0.184500
     36 H11         -4.6370    -2.6250     1.4830 hc         1 HE0       0.021200
     37 H11A        -5.1980    -1.0790     0.8330 hc         1 HE0       0.021200
     38 H12         -6.3950    -0.6230     2.9490 hc         1 HE0       0.034700
     39 H12A        -5.8340    -2.1690     3.5990 hc         1 HE0       0.034700
     40 H13         -7.0060    -3.3610     1.7760 hc         1 HE0      -0.002300
     41 H13A        -7.5670    -1.8140     1.1260 hc         1 HE0      -0.002300
     42 H14         -8.2030    -2.9050     3.8920 hc         1 HE0       0.043700
     43 H14A        -8.7640    -1.3590     3.2420 hc         1 HE0       0.043700
     44 H15         -9.3500    -4.0660     1.9910 h1         1 HE0       0.065700
     45 HN19        -9.9830    -1.3060     1.1600 hn         1 HE0       0.160500
     46 H22        -11.9150    -1.3360    -0.7010 hx         1 HE0       0.082700
     47 H22A       -10.3680    -1.6290    -1.5070 hx         1 HE0       0.082700
     48 HN23       -12.1740    -2.4540    -2.7950 hn         1 HE0       0.218800
     49 HN2A       -11.2570    -3.7060    -2.2800 hn         1 HE0       0.218800
     50 H24          2.0320    -1.2860    -1.7110 hc         1 HE0       0.019200
     51 H24A         2.0160    -2.1360    -0.1590 hc         1 HE0       0.019200
     52 H24B         3.4580    -1.2450    -0.6640 hc         1 HE0       0.019200
     53 H25          2.1220     2.1280    -0.0960 hc         1 HE0       0.019200
     54 H25A         3.4520     1.1830    -0.7800 hc         1 HE0       0.019200
     55 H25B         1.9330     1.3470    -1.6720 hc         1 HE0       0.019200
     56 H233       -12.6910    -3.4010    -1.5630 hn         1 HE0       0.218800
@<TRIPOS>BOND
     1     1     2 1   
     2     1     5 1   
     3     2     3 1   
     4     2    24 1   
     5     2    25 1   
     6     3     4 1   
     7     3    26 1   
     8     3    30 1   
     9     4     5 1   
    10     4    31 1   
    11     5     6 1   
    12     5    32 1   
    13     6     7 1   
    14     6     8 1   
    15     6    33 1   
    16     7    29 2   
    17     7    34 1   
    18     8     9 1   
    19     8    35 1   
    20     9    10 2   
    21     9    11 1   
    22    11    12 1   
    23    11    36 1   
    24    11    37 1   
    25    12    13 1   
    26    12    38 1   
    27    12    39 1   
    28    13    14 1   
    29    13    40 1   
    30    13    41 1   
    31    14    15 1   
    32    14    42 1   
    33    14    43 1   
    34    15    16 1   
    35    15    19 1   
    36    15    44 1   
    37    16    17 1   
    38    16    18 1   
    39    19    20 1   
    40    19    45 1   
    41    20    21 2   
    42    20    22 1   
    43    22    23 1   
    44    22    46 1   
    45    22    47 1   
    46    23    48 1   
    47    23    49 1   
    48    23    56 1   
    49    24    50 1   
    50    24    51 1   
    51    24    52 1   
    52    25    53 1   
    53    25    54 1   
    54    25    55 1   
    55    26    27 1   
    56    26    28 1   
@<TRIPOS>SUBSTRUCTURE
     1 HE0         1 TEMP              0 ****  ****    0 ROOT
