@<TRIPOS>MOLECULE
molecule
   56    56     1     0     0
SMALL
bcc


@<TRIPOS>ATOM
      1 S1           0.0000     0.0000     0.0000 ss         1 HE0      -0.455200
      2 C2           1.8360     0.0000     0.0000 c3         1 HE0       0.106100
      3 C3           2.1960     0.0000     1.4980 c3         1 HE0       0.043500
      4 N4           1.0190     0.0920     2.3670 n7         1 HE0      -0.815200
      5 C5          -0.1570    -0.5770     1.7420 c3         1 HE0       0.283600
      6 C6          -1.4650    -0.0910     2.3690 c3         1 HE0       0.016700
      7 C7          -1.5950     1.3970     2.1700 c          1 HE0       0.593900
      8 N8          -2.5940    -0.7690     1.7290 ns         1 HE0      -0.564900
      9 C9          -3.7590    -0.9120     2.3930 c          1 HE0       0.664100
     10 O10         -3.8710    -0.4790     3.5200 o          1 HE0      -0.620100
     11 C11         -4.9210    -1.6110     1.7350 c3         1 HE0      -0.157400
     12 C12         -6.1110    -1.6370     2.6970 c3         1 HE0      -0.066400
     13 C13         -7.2900    -2.3460     2.0280 c3         1 HE0      -0.093400
     14 C14         -8.4800    -2.3740     2.9900 c3         1 HE0      -0.076400
     15 C15         -9.6600    -3.0830     2.3230 c3         1 HE0      -0.006300
     16 C16        -10.7900    -3.2190     3.3100 c          1 HE0       0.886600
     17 O17        -10.6050    -3.9010     4.4510 o          1 HE0      -0.823300
     18 O18        -11.8620    -2.7120     3.0760 o          1 HE0      -0.823300
     19 N19        -10.1110    -2.2980     1.1700 ns         1 HE0      -0.476900
     20 C20        -10.7560    -2.9050     0.1540 c          1 HE0       0.626100
     21 O21        -10.9630    -4.1000     0.1930 o          1 HE0      -0.621100
     22 C22        -11.2210    -2.0990    -1.0330 c3         1 HE0      -0.000200
     23 N23        -11.8900    -2.9840    -1.9950 nz         1 HE0      -0.791600
     24 C24          2.3750    -1.2590    -0.6840 c3         1 HE0      -0.076600
     25 C25          2.3760     1.2560    -0.6870 c3         1 HE0      -0.076600
     26 C26          2.9400    -1.2720     1.8200 c          1 HE0       0.869600
     27 O27          4.2460    -1.3760     1.5320 o          1 HE0      -0.839800
     28 O28          2.3590    -2.1960     2.3360 o          1 HE0      -0.839800
     29 O29         -2.5340     1.8450     1.5570 o          1 HE0      -0.547100
     30 H3           2.8410     0.8470     1.6990 h1         1 HE0       0.080700
     31 HN4          1.2190    -0.3400     3.2470 hn         1 HE0       0.378800
     32 H5          -0.0650    -1.6550     1.8020 h2         1 HE0       0.092700
     33 H6          -1.4630    -0.3140     3.4290 h1         1 HE0       0.101700
     34 H7          -0.8710     2.0680     2.6170 h4         1 HE0       0.016200
     35 HN8         -2.4980    -1.1380     0.8040 hn         1 HE0       0.323500
     36 H11         -4.6370    -2.6250     1.4830 hc         1 HE0       0.053200
     37 H11A        -5.1980    -1.0790     0.8330 hc         1 HE0       0.053200
     38 H12         -6.3950    -0.6230     2.9490 hc         1 HE0       0.062700
     39 H12A        -5.8340    -2.1690     3.5990 hc         1 HE0       0.062700
     40 H13         -7.0060    -3.3610     1.7760 hc         1 HE0       0.024200
     41 H13A        -7.5670    -1.8140     1.1260 hc         1 HE0       0.024200
     42 H14         -8.2030    -2.9050     3.8920 hc         1 HE0       0.071700
     43 H14A        -8.7640    -1.3590     3.2420 hc         1 HE0       0.071700
     44 H15         -9.3500    -4.0660     1.9910 h1         1 HE0       0.082700
     45 HN19        -9.9830    -1.3060     1.1600 hn         1 HE0       0.313500
     46 H22        -11.9150    -1.3360    -0.7010 hx         1 HE0       0.113200
     47 H22A       -10.3680    -1.6290    -1.5070 hx         1 HE0       0.113200
     48 HN23       -12.1740    -2.4540    -2.7950 hn         1 HE0       0.456467
     49 HN2A       -11.2570    -3.7060    -2.2800 hn         1 HE0       0.456467
     50 H24          2.0320    -1.2860    -1.7110 hc         1 HE0       0.045367
     51 H24A         2.0160    -2.1360    -0.1590 hc         1 HE0       0.045367
     52 H24B         3.4580    -1.2450    -0.6640 hc         1 HE0       0.045367
     53 H25          2.1220     2.1280    -0.0960 hc         1 HE0       0.045367
     54 H25A         3.4520     1.1830    -0.7800 hc         1 HE0       0.045367
     55 H25B         1.9330     1.3470    -1.6720 hc         1 HE0       0.045367
     56 H233       -12.6910    -3.4010    -1.5630 hn         1 HE0       0.456467
@<TRIPOS>BOND
     1     5     1 1
     2     1     2 1
     3     3     2 1
     4    25     2 1
     5     2    24 1
     6     4     3 1
     7     3    26 1
     8     3    30 1
     9     4     5 1
    10     4    31 1
    11     6     5 1
    12     5    32 1
    13     7     6 1
    14     8     6 1
    15     6    33 1
    16    29     7 2
    17     7    34 1
    18     8     9 1
    19     8    35 1
    20    11     9 1
    21     9    10 2
    22    12    11 1
    23    11    36 1
    24    11    37 1
    25    13    12 1
    26    12    38 1
    27    12    39 1
    28    14    13 1
    29    13    40 1
    30    13    41 1
    31    15    14 1
    32    14    42 1
    33    14    43 1
    34    16    15 1
    35    15    19 1
    36    15    44 1
    37    17    16 1
    38    16    18 1
    39    19    20 1
    40    19    45 1
    41    21    20 2
    42    20    22 1
    43    22    23 1
    44    22    46 1
    45    22    47 1
    46    23    48 1
    47    23    49 1
    48    24    50 1
    49    24    51 1
    50    24    52 1
    51    25    53 1
    52    25    54 1
    53    25    55 1
    54    26    28 1
    55    26    27 1
    56    56    23 1
@<TRIPOS>SUBSTRUCTURE
     1 HE0         1 TEMP              0 ****  ****    0 ROOT
