@<TRIPOS>MOLECULE
HE1
   27    25     1     0     0
SMALL
bcc


@<TRIPOS>ATOM
      1 P1         -2.9390  396.0080  375.4470 p3        1 HE1      2.361000
      2 O1         -3.5270  396.7940  374.3480 o         1 HE1     -1.120000
      3 O2         -1.5330  395.5740  375.3730 o         1 HE1     -1.120000
      4 O3         -3.7580  395.6560  376.6210 o         1 HE1     -1.120000
      5 C1         11.3010   24.5830   17.0540 c2        1 HE1     -0.209000
      6 C2         12.4290   24.3840   17.7380 c2        1 HE1     -0.137000
      7 C3         13.6750   24.4010   19.8520 c2        1 HE1     -0.209000
      8 C4         12.5470   24.6010   19.1680 c2        1 HE1     -0.137000
      9 S1         -8.5310 -150.0490 -139.2120 s         1 HE1     -0.471000
     10 C5         -6.7030 -147.7200 -135.8370 c2        1 HE1     -0.316000
     11 C6         -7.9330 -147.3420 -136.3860 c2        1 HE1      0.009000
     12 C7         -8.4990 -148.0680 -137.4350 c2        1 HE1     -0.132000
     13 C8         -7.8790 -149.2050 -137.9960 c2        1 HE1     -0.050000
     14 C9         -6.5660 -149.6020 -137.4040 c3        1 HE1     -0.158000
     15 C10        -6.0070 -148.8140 -136.3050 c1        1 HE1     -0.265000
     16 H1         10.3720   24.9300   17.5260 ha        1 HE1      0.112500
     17 H2         11.2370   24.4120   15.9720 ha        1 HE1      0.112500
     18 H31        13.3440   24.0350   17.2260 ha        1 HE1      0.121000
     19 H32        13.7390   24.5730   20.9340 ha        1 HE1      0.112500
     20 H41        14.6040   24.0550   19.3790 ha        1 HE1      0.112500
     21 H42        11.6320   24.9500   19.6790 ha        1 HE1      0.121000
     22 HO7        -9.9840 -148.2040 -138.6220 ho        1 HE1      0.229000
     23 H5         -8.4800 -146.4660 -136.0040 ha        1 HE1      0.101000
     24 H6         -6.2900 -147.1240 -135.0120 ha        1 HE1      0.100000
     25 H9         -5.7950 -149.6150 -138.2280 hc        1 HE1      0.129000
     26 H10        -6.6500 -150.6670 -137.0390 hc        1 HE1      0.129000
     27 OH         -9.7250 -147.6010 -137.9020 oh        1 HE1     -0.306000
@<TRIPOS>BOND
     1    1    2 1   
     2    1    3 1   
     3    1    4 1   
     4    5    6 1   
     5    5   16 1   
     6    5   17 1   
     7    6    8 1   
     8    6   18 1   
     9    7    8 1   
    10    7   19 1   
    11    7   20 1   
    12    8   21 1   
    13    9   13 1   
    14   10   11 1   
    15   10   15 1   
    16   10   24 1   
    17   11   12 1   
    18   11   23 1   
    19   12   13 1   
    20   12   27 1   
    21   13   14 1   
    22   14   15 1   
    23   14   25 1   
    24   14   26 1   
    25   22   27 1   
@<TRIPOS>SUBSTRUCTURE
     1 HE1         1 TEMP              0 ****  ****    0 ROOT
