@<TRIPOS>MOLECULE
molecule
   27    27     1     0     0
SMALL
bcc


@<TRIPOS>ATOM
      1 P1           0.0000     0.0000     0.0000 p5         1 HE1       0.984100
      2 O1           1.6260     0.0000     0.0000 o          1 HE1      -0.894833
      3 O2          -0.3010     0.0000     1.5960 o          1 HE1      -0.894833
      4 O3          -0.5530     1.2280    -0.6760 o          1 HE1      -0.894833
      5 C1          -0.4390    -1.6070    -0.5210 c2         1 HE1      -0.145600
      6 C2          -0.7550    -1.8770    -1.7940 c2         1 HE1      -0.274200
      7 C3          -0.2110    -3.6910    -3.4150 c3         1 HE1       0.046700
      8 C4          -1.1420    -3.2390    -2.2950 c3         1 HE1      -0.021200
      9 S1          -0.6840    -5.3380    -4.0180 ss         1 HE1      -0.365000
     10 C5           2.4630    -5.9030    -7.2920 ca         1 HE1      -0.115000
     11 C6           2.7390    -6.3300    -5.9940 ca         1 HE1      -0.180000
     12 C7           1.7870    -6.1650    -4.9880 ca         1 HE1       0.143100
     13 C8           0.5450    -5.5690    -5.2650 ca         1 HE1       0.022900
     14 C9           0.2840    -5.1430    -6.5780 ca         1 HE1      -0.081000
     15 C10          1.2350    -5.3080    -7.5850 ca         1 HE1      -0.161000
     16 H1          -0.4590    -2.4070     0.2100 ha         1 HE1       0.103000
     17 H2          -0.7330    -1.0670    -2.5130 ha         1 HE1       0.117000
     18 H31         -0.2660    -2.9830    -4.2330 h1         1 HE1       0.067200
     19 H32          0.8050    -3.7270    -3.0420 h1         1 HE1       0.067200
     20 H41         -2.1590    -3.2050    -2.6690 hc         1 HE1       0.026200
     21 H42         -1.0870    -3.9480    -1.4780 hc         1 HE1       0.026200
     22 HO7          2.0190    -7.5350    -3.6940 ho         1 HE1       0.411000
     23 H5           3.2020    -6.0310    -8.0730 ha         1 HE1       0.117000
     24 H6           3.6920    -6.7920    -5.7670 ha         1 HE1       0.130000
     25 H9          -0.6680    -4.6810    -6.8110 ha         1 HE1       0.144000
     26 H10          1.0200    -4.9760    -8.5930 ha         1 HE1       0.121000
     27 OH           2.0910    -6.5960    -3.7310 oh         1 HE1      -0.497100
@<TRIPOS>BOND
     1     1     2 1
     2     1     3 1
     3     1     4 1
     4     1     5 1
     5     5     6 2
     6     5    16 1
     7     6     8 1
     8     6    17 1
     9     7     8 1
    10     7     9 1
    11     7    18 1
    12     7    19 1
    13     8    20 1
    14     8    21 1
    15     9    13 1
    16    27    12 1
    17    27    22 1
    18    10    11 ar
    19    10    15 ar
    20    10    23 1
    21    11    12 ar
    22    11    24 1
    23    12    13 ar
    24    13    14 ar
    25    14    15 ar
    26    14    25 1
    27    15    26 1
@<TRIPOS>SUBSTRUCTURE
     1 HE1         1 TEMP              0 ****  ****    0 ROOT
