@<TRIPOS>MOLECULE
HE2
   21    20     1     0     0
SMALL
bcc


@<TRIPOS>ATOM
      1 CAA         0.0120   -0.0000    0.0000 c3        1 HE2     -0.093100
      2 CAC         1.5190   -0.0000    0.0220 c3        1 HE2     -0.080400
      3 CAE         2.0530    0.0000    1.4380 c3        1 HE2     -0.078400
      4 CAG         3.5670   -0.0000    1.4550 c3        1 HE2     -0.078400
      5 CAF         4.0960    0.0010    2.8720 c3        1 HE2     -0.084400
      6 CAD         5.6150   -0.0010    2.8750 c3        1 HE2      0.131400
      7 OAB         6.0290    0.0030    4.2320 oh        1 HE2     -0.601800
      8 HAA1       -0.3900   -0.9050    0.5170 hc        1 HE2      0.032700
      9 HAA2       -0.3610   -0.0000   -1.0520 hc        1 HE2      0.032700
     10 HAA3       -0.3900    0.9050    0.5170 hc        1 HE2      0.032700
     11 HAC1        1.9030    0.9020   -0.5230 hc        1 HE2      0.037700
     12 HAC2        1.9030   -0.9030   -0.5230 hc        1 HE2      0.037700
     13 HAE1        1.6710   -0.9020    1.9840 hc        1 HE2      0.041700
     14 HAE2        1.6710    0.9030    1.9840 hc        1 HE2      0.041700
     15 HAG1        3.9490    0.9020    0.9080 hc        1 HE2      0.038700
     16 HAG2        3.9490   -0.9030    0.9090 hc        1 HE2      0.038700
     17 HAF1        3.7250   -0.9000    3.4260 hc        1 HE2      0.055700
     18 HAF2        3.7270    0.9040    3.4240 hc        1 HE2      0.055700
     19 HAD1        6.0130    0.9100    2.3520 h1        1 HE2      0.019700
     20 HAD2        6.0110   -0.9160    2.3570 h1        1 HE2      0.019700
     21 HAB         6.9930    0.0010    4.2260 ho        1 HE2      0.398000
@<TRIPOS>BOND
     1    1    2 1   
     2    1    8 1   
     3    1    9 1   
     4    1   10 1   
     5    2    3 1   
     6    2   11 1   
     7    2   12 1   
     8    3    4 1   
     9    3   13 1   
    10    3   14 1   
    11    4    5 1   
    12    4   15 1   
    13    4   16 1   
    14    5    6 1   
    15    5   17 1   
    16    5   18 1   
    17    6    7 1   
    18    6   19 1   
    19    6   20 1   
    20    7   21 1   
@<TRIPOS>SUBSTRUCTURE
     1 HE2         1 TEMP              0 ****  ****    0 ROOT
