@<TRIPOS>MOLECULE
molecule
   21    20     1     0     0
SMALL
bcc


@<TRIPOS>ATOM
      1 CAA          0.0000     0.0000     0.0000 c3         1 HE2      -0.092100
      2 CAC          1.5310     0.0000     0.0000 c3         1 HE2      -0.084400
      3 CAE          2.0410     0.0000     1.4430 c3         1 HE2      -0.079400
      4 CAG          3.5710    -0.0000     1.4420 c3         1 HE2      -0.082400
      5 CAF          4.0810    -0.0000     2.8840 c3         1 HE2      -0.080400
      6 CAD          5.6110    -0.0000     2.8850 c3         1 HE2       0.140400
      7 OAB          6.0880    -0.0000     4.2310 oh         1 HE2      -0.612800
      8 HAA1        -0.3610    -0.0000    -1.0210 hc         1 HE2       0.033367
      9 HAA2        -0.3610     0.8850     0.5110 hc         1 HE2       0.033367
     10 HAA3        -0.3610    -0.8850     0.5110 hc         1 HE2       0.033367
     11 HAC1         1.8920     0.8850    -0.5110 hc         1 HE2       0.039700
     12 HAC2         1.8920    -0.8840    -0.5110 hc         1 HE2       0.039700
     13 HAE1         1.6800    -0.8850     1.9530 hc         1 HE2       0.043700
     14 HAE2         1.6800     0.8850     1.9530 hc         1 HE2       0.043700
     15 HAG1         3.9310    -0.8840     0.9310 hc         1 HE2       0.040700
     16 HAG2         3.9310     0.8840     0.9310 hc         1 HE2       0.040700
     17 HAF1         3.7200     0.8840     3.3940 hc         1 HE2       0.053700
     18 HAF2         3.7200    -0.8840     3.3940 hc         1 HE2       0.053700
     19 HAD1         5.9730    -0.8840     2.3740 h1         1 HE2       0.017700
     20 HAD2         5.9730     0.8840     2.3740 h1         1 HE2       0.017700
     21 HAB          7.0310     0.0000     4.2310 ho         1 HE2       0.401000
@<TRIPOS>BOND
     1     1     2 1
     2     1     8 1
     3     1     9 1
     4     1    10 1
     5     2     3 1
     6     2    11 1
     7     2    12 1
     8     3     4 1
     9     3    13 1
    10     3    14 1
    11     4     5 1
    12     4    15 1
    13     4    16 1
    14     5     6 1
    15     5    17 1
    16     5    18 1
    17     6     7 1
    18     6    19 1
    19     6    20 1
    20     7    21 1
@<TRIPOS>SUBSTRUCTURE
     1 HE2         1 TEMP              0 ****  ****    0 ROOT
