@<TRIPOS>MOLECULE
molecule
   48    50     1     0     0
SMALL
bcc


@<TRIPOS>ATOM
      1 C9           0.0000     0.0000     0.0000 c3         1 HE3      -0.121100
      2 C8           1.5300     0.0000     0.0000 c3         1 HE3       0.166100
      3 O9           2.0070     0.0000     1.3470 oh         1 HE3      -0.582800
      4 C2           2.0400     1.2490    -0.7220 c3         1 HE3       0.592500
      5 N4'          1.5810     1.3370    -2.1150 nu         1 HE3      -0.831900
      6 C4'          2.2650     0.6170    -3.0850 ca         1 HE3       0.676200
      7 N3'          1.6760     0.3930    -4.2590 nb         1 HE3      -0.754000
      8 C2'          2.2970    -0.2840    -5.2040 ca         1 HE3       0.604300
      9 CM2          1.5970    -0.5160    -6.5180 c3         1 HE3      -0.099400
     10 N1'          3.5130    -0.7630    -5.0320 nb         1 HE3      -0.770000
     11 C6'          4.1620    -0.5820    -3.8910 ca         1 HE3       0.439200
     12 C5'          3.5470     0.1200    -2.8720 ca         1 HE3      -0.466900
     13 C7'          4.2740     0.3190    -1.5650 c3         1 HE3       0.331100
     14 N3           3.5290     1.3330    -0.7860 nh         1 HE3      -0.755400
     15 C4           4.0740     2.4060    -0.1160 c2         1 HE3       0.080800
     16 CM4          5.5750     2.5170    -0.0320 c3         1 HE3      -0.040900
     17 C5           3.3400     3.3440     0.4570 c2         1 HE3      -0.006600
     18 C6           3.8080     4.5690     1.2000 c3         1 HE3       0.000800
     19 C7           3.8410     5.7630     0.2440 c3         1 HE3       0.164400
     20 O7           4.2870     6.9240     0.9470 os         1 HE3      -0.560200
     21 PA           4.2970     8.1350    -0.1140 p5         1 HE3       1.281800
     22 O2A          5.3950     7.8400    -1.2540 o          1 HE3      -0.814000
     23 O3A          2.9600     8.2570    -0.7370 o          1 HE3      -0.814000
     24 O1A          4.6650     9.5080     0.6430 os         1 HE3      -0.655800
     25 PB           4.1520    10.7100    -0.2990 p5         1 HE3       1.213900
     26 O1B          2.5680    10.9090    -0.0990 o          1 HE3      -0.825833
     27 O2B          4.9180    12.0680     0.1000 o          1 HE3      -0.825833
     28 O3B          4.4340    10.3820    -1.7140 o          1 HE3      -0.825833
     29 S1           1.6340     2.8090     0.1550 ss         1 HE3      -0.297700
     30 H91         -0.3610    -0.8710     0.5340 hc         1 HE3       0.045033
     31 H92         -0.3610    -0.0270    -1.0210 hc         1 HE3       0.045033
     32 H93         -0.3610     0.8970     0.4870 hc         1 HE3       0.045033
     33 H8           1.8910    -0.8850    -0.5110 h1         1 HE3       0.032700
     34 HO9          1.8170    -0.8320     1.7480 ho         1 HE3       0.382000
     35 H4'          1.5270     2.2980    -2.3890 hn         1 HE3       0.435800
     36 HM21         0.5370    -0.6570    -6.3430 hc         1 HE3       0.035700
     37 HM22         2.0050    -1.4010    -6.9930 hc         1 HE3       0.035700
     38 HM23         1.7460     0.3410    -7.1630 hc         1 HE3       0.035700
     39 H6'          5.0800    -1.1230    -3.6980 h4         1 HE3      -0.002900
     40 H7'1         5.2800     0.6700    -1.7560 h1         1 HE3       0.035200
     41 H7'2         4.3030    -0.6150    -1.0160 h1         1 HE3       0.035200
     42 HM41         6.0130     1.5270    -0.0840 hc         1 HE3       0.046033
     43 HM42         5.9400     3.1170    -0.8560 hc         1 HE3       0.046033
     44 HM43         5.8500     2.9840     0.9060 hc         1 HE3       0.046033
     45 H61          3.1280     4.7790     2.0160 hc         1 HE3       0.044700
     46 H62          4.8020     4.3940     1.5940 hc         1 HE3       0.044700
     47 H71          2.8470     5.9380    -0.1500 h1         1 HE3       0.056200
     48 H72          4.5210     5.5530    -0.5730 h1         1 HE3       0.056200
@<TRIPOS>BOND
     1     1     2 1
     2     1    30 1
     3     1    31 1
     4     1    32 1
     5     2     3 1
     6     2     4 1
     7     2    33 1
     8     3    34 1
     9     4     5 1
    10     4    14 1
    11     4    29 1
    12     5     6 1
    13     5    35 1
    14     6     7 ar
    15     6    12 ar
    16     7     8 ar
    17     8     9 1
    18     8    10 ar
    19     9    36 1
    20     9    37 1
    21     9    38 1
    22    10    11 ar
    23    11    12 ar
    24    11    39 1
    25    12    13 1
    26    13    14 1
    27    13    40 1
    28    13    41 1
    29    14    15 1
    30    15    16 1
    31    15    17 2
    32    16    42 1
    33    16    43 1
    34    16    44 1
    35    17    18 1
    36    17    29 1
    37    18    19 1
    38    18    45 1
    39    18    46 1
    40    19    20 1
    41    19    47 1
    42    19    48 1
    43    20    21 1
    44    21    22 1
    45    21    23 1
    46    21    24 1
    47    24    25 1
    48    25    26 1
    49    25    27 1
    50    25    28 1
@<TRIPOS>SUBSTRUCTURE
     1 HE3         1 TEMP              0 ****  ****    0 ROOT
