@<TRIPOS>MOLECULE
HE4
   24    23     1     0     0
SMALL
bcc


@<TRIPOS>ATOM
      1 CAA         0.0150    0.0000   -0.0100 c3        1 HE4     -0.092100
      2 CAC         1.5210    0.0000    0.0200 c3        1 HE4     -0.080400
      3 CAE         2.0490   -0.0000    1.4390 c3        1 HE4     -0.079400
      4 CAG         3.5620   -0.0000    1.4630 c3        1 HE4     -0.078400
      5 CAH         4.0880   -0.0000    2.8830 c3        1 HE4     -0.078400
      6 CAF         5.6010   -0.0000    2.9030 c3        1 HE4     -0.084400
      7 CAD         6.1160    0.0000    4.3320 c3        1 HE4      0.131400
      8 OAB         7.5330    0.0000    4.2630 oh        1 HE4     -0.601800
      9 HAA1       -0.3530    0.0000   -1.0640 hc        1 HE4      0.032700
     10 HAA2       -0.3900    0.9050    0.5050 hc        1 HE4      0.032700
     11 HAA3       -0.3900   -0.9050    0.5050 hc        1 HE4      0.032700
     12 HAC1        1.9090   -0.9020   -0.5230 hc        1 HE4      0.038700
     13 HAC2        1.9090    0.9020   -0.5230 hc        1 HE4      0.038700
     14 HAE1        1.6630    0.9030    1.9820 hc        1 HE4      0.039700
     15 HAE2        1.6630   -0.9030    1.9820 hc        1 HE4      0.039700
     16 HAG1        3.9470    0.9030    0.9200 hc        1 HE4      0.041700
     17 HAG2        3.9470   -0.9030    0.9200 hc        1 HE4      0.041700
     18 HAH1        3.7030   -0.9030    3.4260 hc        1 HE4      0.038700
     19 HAH2        3.7030    0.9030    3.4260 hc        1 HE4      0.038700
     20 HAF1        5.9970    0.9020    2.3680 hc        1 HE4      0.055700
     21 HAF2        5.9970   -0.9020    2.3680 hc        1 HE4      0.055700
     22 HAD1        5.7590    0.9130    4.8800 h1        1 HE4      0.019700
     23 HAD2        5.7590   -0.9130    4.8810 h1        1 HE4      0.019700
     24 HAB         7.8520   -0.0000    5.1730 ho        1 HE4      0.398000
@<TRIPOS>BOND
     1    1    2 1   
     2    1    9 1   
     3    1   10 1   
     4    1   11 1   
     5    2    3 1   
     6    2   12 1   
     7    2   13 1   
     8    3    4 1   
     9    3   14 1   
    10    3   15 1   
    11    4    5 1   
    12    4   16 1   
    13    4   17 1   
    14    5    6 1   
    15    5   18 1   
    16    5   19 1   
    17    6    7 1   
    18    6   20 1   
    19    6   21 1   
    20    7    8 1   
    21    7   22 1   
    22    7   23 1   
    23    8   24 1   
@<TRIPOS>SUBSTRUCTURE
     1 HE4         1 TEMP              0 ****  ****    0 ROOT
