@<TRIPOS>MOLECULE
molecule
   24    23     1     0     0
SMALL
bcc


@<TRIPOS>ATOM
      1 CAA          0.0000     0.0000     0.0000 c3         1 HE4      -0.092100
      2 CAC          1.5300     0.0000     0.0000 c3         1 HE4      -0.084400
      3 CAE          2.0390     0.0000     1.4430 c3         1 HE4      -0.081400
      4 CAG          3.5690    -0.0000     1.4430 c3         1 HE4      -0.080400
      5 CAH          4.0780     0.0000     2.8860 c3         1 HE4      -0.082400
      6 CAF          5.6090    -0.0000     2.8870 c3         1 HE4      -0.081400
      7 CAD          6.1180    -0.0000     4.3300 c3         1 HE4       0.140400
      8 OAB          7.5480    -0.0000     4.3300 oh         1 HE4      -0.612800
      9 HAA1        -0.3610     0.0000    -1.0210 hc         1 HE4       0.032700
     10 HAA2        -0.3610    -0.8850     0.5110 hc         1 HE4       0.032700
     11 HAA3        -0.3610     0.8850     0.5110 hc         1 HE4       0.032700
     12 HAC1         1.8910     0.8850    -0.5110 hc         1 HE4       0.040700
     13 HAC2         1.8910    -0.8850    -0.5110 hc         1 HE4       0.040700
     14 HAE1         1.6780     0.8850     1.9540 hc         1 HE4       0.040700
     15 HAE2         1.6780    -0.8850     1.9540 hc         1 HE4       0.040700
     16 HAG1         3.9310     0.8850     0.9330 hc         1 HE4       0.043700
     17 HAG2         3.9310    -0.8850     0.9330 hc         1 HE4       0.043700
     18 HAH1         3.7170    -0.8850     3.3970 hc         1 HE4       0.040700
     19 HAH2         3.7170     0.8850     3.3970 hc         1 HE4       0.040700
     20 HAF1         5.9710    -0.8850     2.3760 hc         1 HE4       0.053700
     21 HAF2         5.9710     0.8850     2.3760 hc         1 HE4       0.053700
     22 HAD1         5.7570    -0.8850     4.8400 h1         1 HE4       0.018700
     23 HAD2         5.7570     0.8850     4.8400 h1         1 HE4       0.018700
     24 HAB          7.8620    -0.0000     5.2190 ho         1 HE4       0.401000
@<TRIPOS>BOND
     1     1     2 1
     2     1     9 1
     3     1    10 1
     4     1    11 1
     5     2     3 1
     6     2    12 1
     7     2    13 1
     8     3     4 1
     9     3    14 1
    10     3    15 1
    11     4     5 1
    12     4    16 1
    13     4    17 1
    14     5     6 1
    15     5    18 1
    16     5    19 1
    17     6     7 1
    18     6    20 1
    19     6    21 1
    20     7     8 1
    21     7    22 1
    22     7    23 1
    23     8    24 1
@<TRIPOS>SUBSTRUCTURE
     1 HE4         1 TEMP              0 ****  ****    0 ROOT
