@<TRIPOS>MOLECULE
HE7
   54    57     1     0     0
SMALL
bcc


@<TRIPOS>ATOM
      1 OAB        -0.0120    0.4170   -0.0530 o         1 HE7     -0.842800
      2 CAR         1.1060   -0.1640   -0.1560 c         1 HE7      0.913600
      3 OAC         1.6520   -0.8320    0.7660 o         1 HE7     -0.842800
      4 CAI         1.8750   -0.0450   -1.4890 c3        1 HE7     -0.201400
      5 CAK         0.9180    0.2200   -2.6270 c3        1 HE7     -0.108400
      6 CAV         1.6370    0.5660   -3.8910 c         1 HE7      0.639100
      7 OAE         2.3990    1.5020   -4.1480 o         1 HE7     -0.573000
      8 OAQ         1.3600   -0.3220   -4.9100 os        1 HE7     -0.447900
      9 CAW         2.0160   -0.1550   -6.1630 c3        1 HE7      0.151100
     10 CBA         1.1390    0.5850   -7.2070 c3        1 HE7     -0.067000
     11 CAA        -0.3170    0.2260   -6.9700 c3        1 HE7     -0.078100
     12 CAM         2.2350   -1.5630   -6.7590 c3        1 HE7     -0.085400
     13 CAO         1.8650   -1.4840   -8.2420 c3        1 HE7     -0.070400
     14 CAZ         1.7150    0.0060   -8.5210 c3        1 HE7     -0.066700
     15 CAY         0.9100    0.4740   -9.7110 c3        1 HE7     -0.046700
     16 CAX         1.0410    2.0060   -9.7970 c3        1 HE7     -0.011400
     17 CAN         0.6390    2.6810   -8.4890 c3        1 HE7     -0.070400
     18 CAP         1.3150    2.0910   -7.2610 c3        1 HE7     -0.065400
     19 CAL         1.3960   -0.1370  -11.0120 c3        1 HE7     -0.074400
     20 CAJ         0.4920    0.2730  -12.1540 c3        1 HE7     -0.036100
     21 CAT         0.0810    1.7050  -12.1100 ca        1 HE7     -0.035300
     22 CAU         0.2950    2.5250  -10.9880 ca        1 HE7     -0.089300
     23 CAH        -0.5680    2.2190  -13.2400 ca        1 HE7     -0.219000
     24 CAS        -1.0030    3.5460  -13.2530 ca        1 HE7      0.114100
     25 OAD        -1.6450    4.1090  -14.3360 oh        1 HE7     -0.504100
     26 CAF        -0.7980    4.3750  -12.1400 ca        1 HE7     -0.160000
     27 CAG        -0.1510    3.8540  -11.0260 ca        1 HE7     -0.096000
     28 HAI1        2.6050    0.7970   -1.3930 hc        1 HE7      0.036700
     29 HAI2        2.4490   -0.9870   -1.6660 hc        1 HE7      0.036700
     30 HAK1        0.2540    1.0850   -2.3480 hc        1 HE7      0.086700
     31 HAK2        0.2630   -0.6750   -2.7920 hc        1 HE7      0.086700
     32 HAW         2.9890    0.3880   -6.0240 h1        1 HE7      0.072700
     33 HAA1       -0.6260    0.5860   -5.9570 hc        1 HE7      0.038700
     34 HAA2       -0.4500   -0.8830   -7.0000 hc        1 HE7      0.038700
     35 HAA3       -0.9870    0.6910   -7.7300 hc        1 HE7      0.038700
     36 HAM1        1.5910   -2.3050   -6.2250 hc        1 HE7      0.054700
     37 HAM2        3.3000   -1.8670   -6.6260 hc        1 HE7      0.054700
     38 HAO1        0.9090   -2.0260   -8.4440 hc        1 HE7      0.037200
     39 HAO2        2.6580   -1.9390   -8.8840 hc        1 HE7      0.037200
     40 HAZ         2.7610    0.4190   -8.6430 hc        1 HE7      0.044700
     41 HAY        -0.1720    0.2010   -9.5710 hc        1 HE7      0.062700
     42 HAX         2.1340    2.2410   -9.9730 hc        1 HE7      0.053700
     43 HAN1        0.9180    3.7680   -8.5370 hc        1 HE7      0.040200
     44 HAN2       -0.4740    2.6260   -8.3720 hc        1 HE7      0.040200
     45 HAP1        0.8830    2.5540   -6.3350 hc        1 HE7      0.054200
     46 HAP2        2.4090    2.3390   -7.2760 hc        1 HE7      0.054200
     47 HAL1        2.4480    0.1920  -11.2160 hc        1 HE7      0.043200
     48 HAL2        1.4060   -1.2550  -10.9220 hc        1 HE7      0.043200
     49 HAJ1       -0.4410   -0.3550  -12.1320 hc        1 HE7      0.046700
     50 HAJ2        1.0080    0.0640  -13.1300 hc        1 HE7      0.046700
     51 HAH        -0.7340    1.5740  -14.1150 ha        1 HE7      0.127000
     52 HOAD       -1.7320    3.4240  -15.0140 ho        1 HE7      0.413000
     53 HAF        -1.1480    5.4160  -12.1620 ha        1 HE7      0.145000
     54 HAG         0.0070    4.5130  -10.1580 ha        1 HE7      0.139000
@<TRIPOS>BOND
     1    1    2 1   
     2    2    3 1   
     3    2    4 1   
     4    4    5 1   
     5    4   28 1   
     6    4   29 1   
     7    5    6 1   
     8    5   30 1   
     9    5   31 1   
    10    6    7 2   
    11    6    8 1   
    12    8    9 1   
    13    9   10 1   
    14    9   12 1   
    15    9   32 1   
    16   10   11 1   
    17   10   14 1   
    18   10   18 1   
    19   11   33 1   
    20   11   34 1   
    21   11   35 1   
    22   12   13 1   
    23   12   36 1   
    24   12   37 1   
    25   13   14 1   
    26   13   38 1   
    27   13   39 1   
    28   14   15 1   
    29   14   40 1   
    30   15   16 1   
    31   15   19 1   
    32   15   41 1   
    33   16   17 1   
    34   16   22 1   
    35   16   42 1   
    36   17   18 1   
    37   17   43 1   
    38   17   44 1   
    39   18   45 1   
    40   18   46 1   
    41   19   20 1   
    42   19   47 1   
    43   19   48 1   
    44   20   21 1   
    45   20   49 1   
    46   20   50 1   
    47   21   22 ar  
    48   21   23 ar  
    49   22   27 ar  
    50   23   24 ar  
    51   23   51 1   
    52   24   25 1   
    53   24   26 ar  
    54   25   52 1   
    55   26   27 ar  
    56   26   53 1   
    57   27   54 1   
@<TRIPOS>SUBSTRUCTURE
     1 HE7         1 TEMP              0 ****  ****    0 ROOT
