@<TRIPOS>MOLECULE
molecule
   54    57     1     0     0
SMALL
bcc


@<TRIPOS>ATOM
      1 OAB          0.0000     0.0000     0.0000 o          1 HE7      -0.852800
      2 CAR          1.2080     0.0000     0.0000 c          1 HE7       0.890600
      3 OAC          1.8790     0.0000     1.1630 o          1 HE7      -0.852800
      4 CAI          1.9620    -0.0070    -1.3050 c3         1 HE7      -0.174400
      5 CAK          0.9670    -0.0130    -2.4680 c3         1 HE7      -0.104400
      6 CAV          1.7220    -0.0200    -3.7720 c          1 HE7       0.616100
      7 OAE          2.9300    -0.0210    -3.7730 o          1 HE7      -0.567000
      8 OAQ          1.0510    -0.0260    -4.9350 os         1 HE7      -0.431900
      9 CAW          1.8420    -0.0340    -6.1530 c3         1 HE7       0.155100
     10 CBA          1.0970     0.6770    -7.2870 c3         1 HE7      -0.064000
     11 CAA         -0.3730     0.2530    -7.2950 c3         1 HE7      -0.081100
     12 CAM          2.0030    -1.4800    -6.6950 c3         1 HE7      -0.097400
     13 CAO          1.9290    -1.3780    -8.2390 c3         1 HE7      -0.074400
     14 CAZ          1.8230     0.1130    -8.5410 c3         1 HE7      -0.070700
     15 CAY          0.9930     0.5110    -9.7420 c3         1 HE7      -0.057700
     16 CAX          1.0420     2.0420    -9.8290 c3         1 HE7      -0.021400
     17 CAN          0.4770     2.6890    -8.5750 c3         1 HE7      -0.076400
     18 CAP          1.2210     2.1870    -7.3220 c3         1 HE7      -0.063400
     19 CAL          1.5650    -0.0520   -11.0430 c3         1 HE7      -0.077400
     20 CAJ          0.5730     0.2400   -12.1680 c3         1 HE7      -0.035100
     21 CAT          0.1360     1.6810   -12.1510 ca         1 HE7      -0.061300
     22 CAU          0.3440     2.5140   -11.0710 ca         1 HE7      -0.069300
     23 CAH         -0.5020     2.1740   -13.2820 ca         1 HE7      -0.159000
     24 CAS         -0.9370     3.4860   -13.3310 ca         1 HE7       0.095100
     25 OAD         -1.5600     3.9590   -14.4430 oh         1 HE7      -0.525100
     26 CAF         -0.7350     4.3180   -12.2380 ca         1 HE7      -0.153000
     27 CAG         -0.0980     3.8300   -11.1170 ca         1 HE7      -0.116000
     28 HAI1         2.5850     0.8770    -1.3670 hc         1 HE7       0.044700
     29 HAI2         2.5840    -0.8920    -1.3570 hc         1 HE7       0.044700
     30 HAK1         0.3450     0.8720    -2.4150 hc         1 HE7       0.077200
     31 HAK2         0.3450    -0.8980    -2.4060 hc         1 HE7       0.077200
     32 HAW          2.8110     0.4220    -5.9900 h1         1 HE7       0.076700
     33 HAA1        -0.4380    -0.8220    -7.4200 hc         1 HE7       0.041700
     34 HAA2        -0.8860     0.7430    -8.1140 hc         1 HE7       0.041700
     35 HAA3        -0.8360     0.5360    -6.3580 hc         1 HE7       0.041700
     36 HAM1         1.1990    -2.1060    -6.3260 hc         1 HE7       0.056700
     37 HAM2         2.9630    -1.8830    -6.3960 hc         1 HE7       0.056700
     38 HAO1         2.8290    -1.7860    -8.6840 hc         1 HE7       0.039700
     39 HAO2         1.0530    -1.8970    -8.6070 hc         1 HE7       0.039700
     40 HAZ          2.8130     0.5450    -8.6170 hc         1 HE7       0.053700
     41 HAY         -0.0300     0.1800    -9.6120 hc         1 HE7       0.069700
     42 HAX          2.0820     2.3330    -9.9080 hc         1 HE7       0.055700
     43 HAN1         0.5890     3.7640    -8.6480 hc         1 HE7       0.046200
     44 HAN2        -0.5740     2.4390    -8.4880 hc         1 HE7       0.046200
     45 HAP1         0.7700     2.6120    -6.4340 hc         1 HE7       0.051200
     46 HAP2         2.2660     2.4670    -7.3800 hc         1 HE7       0.051200
     47 HAL1         1.6800    -1.1250   -10.9430 hc         1 HE7       0.047700
     48 HAL2         2.5030     0.4450   -11.2610 hc         1 HE7       0.047700
     49 HAJ1        -0.3010    -0.3850   -12.0250 hc         1 HE7       0.050700
     50 HAJ2         1.0600     0.0410   -13.1150 hc         1 HE7       0.050700
     51 HAH         -0.6620     1.5230   -14.1340 ha         1 HE7       0.134000
     52 HOAD        -0.9140     4.2560   -15.0620 ho         1 HE7       0.413000
     53 HAF         -1.0720     5.3470   -12.2680 ha         1 HE7       0.136000
     54 HAG          0.0600     4.4790   -10.2650 ha         1 HE7       0.139000
@<TRIPOS>BOND
     1     1     2 1
     2     2     4 1
     3     2     3 1
     4     4     5 1
     5     7     6 2
     6     5     6 1
     7     6     8 1
     8     8     9 1
     9    12     9 1
    10    12    13 1
    11     9    10 1
    12    13    14 1
    13    10    14 1
    14    10    11 1
    15    10    18 1
    16    14    15 1
    17    18    17 1
    18    15    19 1
    19    15    16 1
    20    17    16 1
    21    19    20 1
    22    16    22 1
    23    20    21 1
    24    22    21 ar
    25    22    27 ar
    26    21    23 ar
    27    27    26 ar
    28    23    24 ar
    29    26    24 ar
    30    24    25 1
    31     4    28 1
    32     4    29 1
    33     5    30 1
    34     5    31 1
    35     9    32 1
    36    11    33 1
    37    11    34 1
    38    11    35 1
    39    12    36 1
    40    12    37 1
    41    13    38 1
    42    13    39 1
    43    14    40 1
    44    15    41 1
    45    16    42 1
    46    17    43 1
    47    17    44 1
    48    18    45 1
    49    18    46 1
    50    19    47 1
    51    19    48 1
    52    20    49 1
    53    20    50 1
    54    23    51 1
    55    25    52 1
    56    26    53 1
    57    27    54 1
@<TRIPOS>SUBSTRUCTURE
     1 HE7         1 TEMP              0 ****  ****    0 ROOT
