@<TRIPOS>MOLECULE
HED
   18    17     1     0     0
SMALL
bcc


@<TRIPOS>ATOM
      1 C1          0.1470    0.1060   -0.1080 c3        1 HED      0.131400
      2 O1          1.5620    0.1370    0.0180 oh        1 HED     -0.602800
      3 C2         -0.4150    0.0650    1.2970 c3        1 HED     -0.029300
      4 S3         -2.1720    0.0440    1.3430 ss        1 HED     -0.166100
      5 S4         -2.7930   -1.8140    0.5680 ss        1 HED     -0.166100
      6 C5         -2.8940   -2.9330    1.9200 c3        1 HED     -0.029300
      7 C6         -4.0110   -2.6070    2.8860 c3        1 HED      0.131400
      8 O6         -3.9760   -3.5980    3.9030 oh        1 HED     -0.602800
      9 H11        -0.2080    1.0240   -0.6510 h1        1 HED      0.037700
     10 H12        -0.1670   -0.8060   -0.6840 h1        1 HED      0.037700
     11 HO1         1.9170    0.1410   -0.8780 ho        1 HED      0.405000
     12 H21         0.0320   -0.7920    1.8560 h1        1 HED      0.093700
     13 H22        -0.1440    1.0060    1.8450 h1        1 HED      0.093700
     14 H51        -1.9270   -3.0130    2.4740 h1        1 HED      0.093700
     15 H52        -3.0870   -3.9250    1.4320 h1        1 HED      0.093700
     16 H61        -5.0060   -2.6280    2.3650 h1        1 HED      0.037700
     17 H62        -3.8560   -1.5890    3.3380 h1        1 HED      0.037700
     18 HO6        -4.6750   -3.3740    4.5290 ho        1 HED      0.405000
@<TRIPOS>BOND
     1    1    2 1   
     2    1    3 1   
     3    1    9 1   
     4    1   10 1   
     5    2   11 1   
     6    3    4 1   
     7    3   12 1   
     8    3   13 1   
     9    4    5 1   
    10    5    6 1   
    11    6    7 1   
    12    6   14 1   
    13    6   15 1   
    14    7    8 1   
    15    7   16 1   
    16    7   17 1   
    17    8   18 1   
@<TRIPOS>SUBSTRUCTURE
     1 HED         1 TEMP              0 ****  ****    0 ROOT
