@<TRIPOS>MOLECULE
molecule
   18    17     1     0     0
SMALL
bcc


@<TRIPOS>ATOM
      1 C1           0.0000     0.0000     0.0000 c3         1 HED       0.133900
      2 O1           1.4290     0.0000     0.0000 oh         1 HED      -0.611800
      3 C2          -0.5100     0.0000     1.4420 c3         1 HED      -0.002300
      4 S3          -2.3240    -0.0000     1.4420 ss         1 HED      -0.179100
      5 S4          -2.6790    -1.7490     0.4340 ss         1 HED      -0.179100
      6 C5          -2.7350    -2.9100     1.8260 c3         1 HED      -0.002300
      7 C6          -3.8570    -2.5060     2.7820 c3         1 HED       0.133900
      8 O6          -3.9000    -3.4210     3.8800 oh         1 HED      -0.611800
      9 H11         -0.3610     0.8850    -0.5110 h1         1 HED       0.038200
     10 H12         -0.3610    -0.8840    -0.5110 h1         1 HED       0.038200
     11 HO1          1.7430     0.0730    -0.8860 ho         1 HED       0.408000
     12 H21         -0.1490    -0.8840     1.9530 h1         1 HED       0.087700
     13 H22         -0.1490     0.8850     1.9530 h1         1 HED       0.087700
     14 H51         -2.9200    -3.9100     1.4540 h1         1 HED       0.087700
     15 H52         -1.7880    -2.8890     2.3510 h1         1 HED       0.087700
     16 H61         -4.8050    -2.5270     2.2570 h1         1 HED       0.038200
     17 H62         -3.6730    -1.5050     3.1540 h1         1 HED       0.038200
     18 HO6         -4.6360    -3.2160     4.4320 ho         1 HED       0.408000
@<TRIPOS>BOND
     1     1     2 1
     2     1     3 1
     3     1     9 1
     4     1    10 1
     5     2    11 1
     6     3     4 1
     7     3    12 1
     8     3    13 1
     9     4     5 1
    10     5     6 1
    11     6     7 1
    12     6    14 1
    13     6    15 1
    14     7     8 1
    15     7    16 1
    16     7    17 1
    17     8    18 1
@<TRIPOS>SUBSTRUCTURE
     1 HED         1 TEMP              0 ****  ****    0 ROOT
