@<TRIPOS>MOLECULE
molecule
   30    29     1     0     0
SMALL
bcc


@<TRIPOS>ATOM
      1 C1           0.0000     0.0000     0.0000 c3         1 HEE      -0.258600
      2 C2           1.5290     0.0000     0.0000 c3         1 HEE      -0.043400
      3 C3           2.0410     0.0000     1.4410 c3         1 HEE      -0.080400
      4 C4           3.5700    -0.0000     1.4410 c3         1 HEE      -0.082400
      5 C5           4.0820    -0.0000     2.8830 c3         1 HEE      -0.085400
      6 C6           5.6110    -0.0000     2.8830 c3         1 HEE      -0.092100
      7 P           -0.6090    -0.0010    -1.7170 p5         1 HEE       1.141600
      8 O1P         -0.1170    -1.2100    -2.4140 o          1 HEE      -0.820500
      9 O2P         -2.2180     0.0000    -1.7170 os         1 HEE      -0.563200
     10 O3P         -0.0720     1.3120    -2.4780 o          1 HEE      -0.820500
     11 C1'         -2.6330    -0.0000    -3.0830 c3         1 HEE       0.152400
     12 C2'         -4.1600    -0.0000    -3.1550 c3         1 HEE      -0.093100
     13 H11         -0.3610    -0.8840     0.5110 hc         1 HEE       0.038700
     14 H12         -0.3610     0.8850     0.5110 hc         1 HEE       0.038700
     15 H21          1.8900    -0.8840    -0.5110 hc         1 HEE       0.055700
     16 H22          1.8900     0.8840    -0.5110 hc         1 HEE       0.055700
     17 H31          1.6800     0.8840     1.9520 hc         1 HEE       0.028200
     18 H32          1.6800    -0.8840     1.9520 hc         1 HEE       0.028200
     19 H41          3.9310    -0.8840     0.9300 hc         1 HEE       0.040200
     20 H42          3.9310     0.8840     0.9300 hc         1 HEE       0.040200
     21 H51          3.7210     0.8840     3.3940 hc         1 HEE       0.033700
     22 H52          3.7210    -0.8840     3.3940 hc         1 HEE       0.033700
     23 H61          5.9720    -0.0000     3.9040 hc         1 HEE       0.025700
     24 H62          5.9720    -0.8850     2.3720 hc         1 HEE       0.025700
     25 H63          5.9720     0.8850     2.3720 hc         1 HEE       0.025700
     26 H1'1        -2.2480    -0.8850    -3.5770 h1         1 HEE       0.051700
     27 H1'2        -2.2480     0.8840    -3.5770 h1         1 HEE       0.051700
     28 H2'1        -4.4730    -0.0000    -4.1920 hc         1 HEE       0.023367
     29 H2'2        -4.5450    -0.8850    -2.6620 hc         1 HEE       0.023367
     30 H2'3        -4.5450     0.8840    -2.6610 hc         1 HEE       0.023367
@<TRIPOS>BOND
     1     1     2 1
     2     1     7 1
     3     1    13 1
     4     1    14 1
     5     2     3 1
     6     2    15 1
     7     2    16 1
     8     3     4 1
     9     3    17 1
    10     3    18 1
    11     4     5 1
    12     4    19 1
    13     4    20 1
    14     5     6 1
    15     5    21 1
    16     5    22 1
    17     6    23 1
    18     6    24 1
    19     6    25 1
    20     7     8 1
    21     7     9 1
    22     7    10 1
    23     9    11 1
    24    11    12 1
    25    11    26 1
    26    11    27 1
    27    12    28 1
    28    12    29 1
    29    12    30 1
@<TRIPOS>SUBSTRUCTURE
     1 HEE         1 TEMP              0 ****  ****    0 ROOT
