@<TRIPOS>MOLECULE
molecule
   37    38     1     0     0
SMALL
bcc


@<TRIPOS>ATOM
      1 N1           0.0000     0.0000     0.0000 n          1 HEF      -0.377000
      2 C2           1.3460     0.0000     0.0000 c          1 HEF       0.808500
      3 O2           1.9440     0.0020    -1.0590 o          1 HEF      -0.668500
      4 N3           2.0390     0.0000     1.1530 ns         1 HEF      -0.556500
      5 C4           1.3980     0.0030     2.3380 c          1 HEF       0.704700
      6 O4           2.0330     0.0030     3.3790 o          1 HEF      -0.614500
      7 C5          -0.0050    -0.0030     2.3680 cc         1 HEF      -0.213400
      8 C6          -0.6950    -0.0020     1.1860 cd         1 HEF       0.159200
      9 CM5         -0.7410    -0.0040     3.6820 c3         1 HEF      -0.028900
     10 CM          -0.7280     0.0010    -1.2700 c3         1 HEF       0.279800
     11 OM          -1.2570     1.3060    -1.5160 os         1 HEF      -0.379600
     12 CE1         -0.2600     2.0250    -2.2450 c3         1 HEF       0.117400
     13 CE2         -0.7650     3.4370    -2.5420 c3         1 HEF       0.141400
     14 OE          -1.0370     4.1130    -1.3120 oh         1 HEF      -0.598800
     15 S'          -2.4560    -0.0010     1.1850 ss         1 HEF      -0.134500
     16 C1'         -2.7610    -1.6370     0.6040 ca         1 HEF      -0.003100
     17 C2'         -4.0580    -2.0400     0.3090 ca         1 HEF      -0.125500
     18 C3'         -4.2940    -3.3220    -0.1460 ca         1 HEF      -0.112500
     19 C4'         -3.2420    -4.2030    -0.3090 ca         1 HEF      -0.128000
     20 C5'         -1.9490    -3.8060    -0.0170 ca         1 HEF      -0.112500
     21 C6'         -1.7060    -2.5230     0.4320 ca         1 HEF      -0.125500
     22 HN3          3.0390    -0.0000     1.1300 hn         1 HEF       0.363500
     23 HM51        -1.7110     0.4610     3.5530 hc         1 HEF       0.059033
     24 HM52        -0.1690     0.5490     4.4170 hc         1 HEF       0.059033
     25 HM53        -0.8730    -1.0250     4.0210 hc         1 HEF       0.059033
     26 HM1         -1.5400    -0.7150    -1.2220 h2         1 HEF       0.089700
     27 HM2         -0.0540    -0.2730    -2.0730 h2         1 HEF       0.089700
     28 HE11        -0.0540     1.5120    -3.1760 h1         1 HEF       0.046700
     29 HE12         0.6470     2.0820    -1.6550 h1         1 HEF       0.046700
     30 HE21        -1.6730     3.3800    -3.1300 h1         1 HEF       0.029700
     31 HE22        -0.0100     3.9820    -3.0950 h1         1 HEF       0.029700
     32 HOE         -1.2240     5.0200    -1.4870 ho         1 HEF       0.401000
     33 H2'         -4.8820    -1.3500     0.4370 ha         1 HEF       0.140500
     34 H3'         -5.3040    -3.6370    -0.3750 ha         1 HEF       0.137000
     35 H4'         -3.4300    -5.2100    -0.6640 ha         1 HEF       0.135000
     36 H5'         -1.1270    -4.4990    -0.1490 ha         1 HEF       0.137000
     37 H6'         -0.6940    -2.2120     0.6610 ha         1 HEF       0.140500
@<TRIPOS>BOND
     1     1     2 1
     2     1     8 1
     3     1    10 1
     4     2     3 2
     5     2     4 1
     6     4     5 1
     7     4    22 1
     8     5     6 2
     9     5     7 1
    10     7     8 2
    11     7     9 1
    12     8    15 1
    13     9    23 1
    14     9    24 1
    15     9    25 1
    16    10    11 1
    17    10    26 1
    18    10    27 1
    19    11    12 1
    20    12    13 1
    21    12    28 1
    22    12    29 1
    23    13    14 1
    24    13    30 1
    25    13    31 1
    26    14    32 1
    27    15    16 1
    28    16    17 ar
    29    16    21 ar
    30    17    18 ar
    31    17    33 1
    32    18    19 ar
    33    18    34 1
    34    19    20 ar
    35    19    35 1
    36    20    21 ar
    37    20    36 1
    38    21    37 1
@<TRIPOS>SUBSTRUCTURE
     1 HEF         1 TEMP              0 ****  ****    0 ROOT
