@<TRIPOS>MOLECULE
molecule
   43    45     1     0     0
SMALL
bcc


@<TRIPOS>ATOM
      1 N6           0.0000     0.0000     0.0000 nv         1 HEJ      -1.027500
      2 C6           1.3840     0.0000     0.0000 ca         1 HEJ       0.677200
      3 N1           2.0630     0.0000     1.1420 nb         1 HEJ      -0.823000
      4 C2           3.3850    -0.0000     1.1520 ca         1 HEJ       0.613900
      5 N3           4.1000     0.0010     0.0470 nb         1 HEJ      -0.814000
      6 C4           3.5070     0.0010    -1.1430 ca         1 HEJ       0.464800
      7 C5           2.1030    -0.0060    -1.2080 ca         1 HEJ      -0.193200
      8 N7           1.7630    -0.0040    -2.5190 nc         1 HEJ      -0.621100
      9 C8           2.8430     0.0030    -3.2460 cd         1 HEJ       0.439700
     10 N9           3.9450    -0.0080    -2.4430 na         1 HEJ      -0.236000
     11 C1'          5.3410    -0.0030    -2.8870 c3         1 HEJ       0.267800
     12 O4'          5.4440     0.5520    -4.2170 os         1 HEJ      -0.357600
     13 C4'          6.7020     0.0680    -4.7350 c3         1 HEJ       0.129100
     14 C5'          6.7130     0.1430    -6.2630 c3         1 HEJ       0.242400
     15 O5'          6.6820     1.5120    -6.6730 os         1 HEJ      -0.584200
     16 PA           6.6830     1.9650    -8.2180 p5         1 HEJ       1.437800
     17 O2A          5.5620     1.3070    -8.9260 o          1 HEJ      -0.854000
     18 O1A          8.0760     1.5350    -8.9030 o          1 HEJ      -0.854000
     19 O3A          6.5110     3.5630    -8.3090 os         1 HEJ      -0.722800
     20 PB           6.0410     4.5730    -9.4720 p5         1 HEJ       1.518800
     21 O1B          4.8300     4.0360   -10.1310 o          1 HEJ      -0.874000
     22 O2B          7.2190     4.7280   -10.5570 o          1 HEJ      -0.874000
     23 O3B          5.7090     6.0120    -8.8300 os         1 HEJ      -0.736800
     24 PG           4.8440     7.2800    -9.3150 p5         1 HEJ       1.347900
     25 O3G          5.0580     7.4980   -10.7630 o          1 HEJ      -0.855500
     26 O2G          3.2820     7.0010    -9.0400 o          1 HEJ      -0.855500
     27 O1G          5.3070     8.5890    -8.5010 o          1 HEJ      -0.855500
     28 C3'          6.7830    -1.4010    -4.2660 c3         1 HEJ       0.065100
     29 O3'          8.1250    -1.7410    -3.9130 oh         1 HEJ      -0.606800
     30 C2'          5.8670    -1.4490    -3.0230 c3         1 HEJ       0.071100
     31 O31          4.7850    -2.3580    -3.2330 oh         1 HEJ      -0.579800
     32 H1          -0.5000    -0.5120    -0.6990 hn         1 HEJ       0.419800
     33 H2          -0.5000     0.4950     0.7110 hn         1 HEJ       0.419800
     34 H3           3.8990    -0.0000     2.1050 h5         1 HEJ       0.018100
     35 H4           2.8630     0.0140    -4.3290 h5         1 HEJ       0.104800
     36 H5           5.9600     0.5580    -2.1980 h2         1 HEJ       0.083700
     37 H6           7.5230     0.6390    -4.3180 h1         1 HEJ       0.071700
     38 H7           7.6130    -0.3270    -6.6410 h1         1 HEJ       0.029700
     39 H8           5.8440    -0.3710    -6.6560 h1         1 HEJ       0.029700
     40 H13          6.4070    -2.0640    -5.0360 h1         1 HEJ       0.061700
     41 H14          8.3660    -2.5490    -4.3360 ho         1 HEJ       0.388000
     42 H15          6.4370    -1.7260    -2.1450 h1         1 HEJ       0.045700
     43 H16          5.0900    -3.2430    -3.1190 ho         1 HEJ       0.380000
@<TRIPOS>BOND
     1    25    24 1
     2    27    24 1
     3    24    26 1
     4    24    23 1
     5    21    20 1
     6    23    20 1
     7    31    30 1
     8    20    19 1
     9    20    22 1
    10    28    29 1
    11    28    30 1
    12    28    13 1
    13    14    13 1
    14    14    15 1
    15    19    16 1
    16    30    11 1
    17    13    12 1
    18    15    16 1
    19    17    16 1
    20    16    18 1
    21    11    12 1
    22    11    10 1
    23     9    10 1
    24     9     8 2
    25    10     6 1
    26     8     7 1
    27     6     7 ar
    28     6     5 ar
    29     7     2 ar
    30     5     4 ar
    31     2     1 1
    32     2     3 ar
    33     4     3 ar
    34     1    32 1
    35     1    33 1
    36     4    34 1
    37     9    35 1
    38    11    36 1
    39    13    37 1
    40    14    38 1
    41    14    39 1
    42    28    40 1
    43    29    41 1
    44    30    42 1
    45    31    43 1
@<TRIPOS>SUBSTRUCTURE
     1 HEJ         1 TEMP              0 ****  ****    0 ROOT
