@<TRIPOS>MOLECULE
HEL
   54    55     1     0     0
SMALL
bcc


@<TRIPOS>ATOM
      1 S1           0.0000     0.0000     0.0000 ss         1 HEL      -0.501200
      2 C2           1.8490     0.0000     0.0000 c3         1 HEL       0.140100
      3 C3           2.0820     0.0000     1.5370 c3         1 HEL      -0.126300
      4 N4           1.0810    -0.8120     2.2370 nj         1 HEL      -0.128800
      5 C5          -0.2280    -0.9530     1.5550 cy         1 HEL       0.102800
      6 C6          -0.8560    -0.1490     2.6960 cy         1 HEL      -0.113300
      7 C7           0.5000    -0.2320     3.3670 c          1 HEL       0.641500
      8 N8          -1.2440     1.2110     2.3140 ns         1 HEL      -0.180900
      9 C9          -2.2200     1.8480     2.9910 c          1 HEL       0.571100
     10 O10         -2.7750     1.2950     3.9160 o          1 HEL      -0.651100
     11 C11         -2.6210     3.2470     2.5990 c3         1 HEL      -0.097400
     12 C12         -3.7410     3.7340     3.5200 c3         1 HEL      -0.014400
     13 C13         -4.1470     5.1550     3.1210 c3         1 HEL      -0.043400
     14 C14         -5.2670     5.6420     4.0430 c3         1 HEL      -0.020400
     15 C15         -5.6730     7.0620     3.6450 c3         1 HEL      -0.150300
     16 C16         -6.8570     7.4960     4.4700 c          1 HEL       1.005600
     17 O17         -6.7230     8.3590     5.3210 o          1 HEL      -0.871800
     18 O18         -7.9480     6.9840     4.2870 o          1 HEL      -0.871800
     19 N19         -4.5520     7.9750     3.8800 ns         1 HEL       0.008100
     20 C20         -4.4570     9.1210     3.1780 c          1 HEL       0.513100
     21 O21         -5.3000     9.3970     2.3510 o          1 HEL      -0.680100
     22 C22         -3.3040    10.0600     3.4200 c3         1 HEL      -0.141200
     23 N23         -3.4300    11.2280     2.5380 nz         1 HEL       0.113400
     24 C24          2.4120    -1.2640    -0.6530 c3         1 HEL       0.011900
     25 C25          2.4120     1.2630    -0.6540 c3         1 HEL       0.011900
     26 C26          3.4550    -0.5330     1.8510 c          1 HEL       1.009600
     27 O27          4.4450     0.0870     1.5000 o          1 HEL      -0.868300
     28 O28          3.5780    -1.5850     2.4570 o          1 HEL      -0.868300
     29 O29          0.9170     0.0730     4.4640 o          1 HEL      -0.555500
     30 H3           2.0100     1.0200     1.8960 h1         1 HEL       0.030700
     31 H5          -0.5710    -1.9760     1.4540 h2         1 HEL       0.082700
     32 H6          -1.6220    -0.7010     3.2260 h1         1 HEL       0.081700
     33 HN8         -0.8160     1.6510     1.5230 hn         1 HEL       0.211500
     34 H111        -2.9700     3.2480     1.5730 hc         1 HEL       0.022200
     35 H112        -1.7660     3.9060     2.6890 hc         1 HEL       0.022200
     36 H121        -4.5960     3.0750     3.4290 hc         1 HEL       0.034200
     37 H122        -3.3910     3.7330     4.5450 hc         1 HEL       0.034200
     38 H131        -3.2920     5.8140     3.2130 hc         1 HEL      -0.001800
     39 H132        -4.4960     5.1560     2.0960 hc         1 HEL      -0.001800
     40 H141        -4.9180     5.6400     5.0680 hc         1 HEL       0.040700
     41 H142        -6.1220     4.9820     3.9510 hc         1 HEL       0.040700
     42 H15         -5.9390     7.0800     2.5950 h1         1 HEL       0.062700
     43 H19         -3.8760     7.7640     4.5870 hn         1 HEL       0.159500
     44 H221        -3.3150    10.3860     4.4530 hx         1 HEL       0.083200
     45 H222        -2.3720     9.5490     3.2120 hx         1 HEL       0.083200
     46 H231        -4.2800    11.7140     2.7460 hn         1 HEL       0.218133
     47 H232        -2.6510    11.8400     2.6820 hn         1 HEL       0.218133
     48 H233        -3.4430    10.9250     1.5840 hn         1 HEL       0.218133
     49 H241         1.9580    -1.3990    -1.6280 hc         1 HEL       0.019367
     50 H242         2.1900    -2.1220    -0.0300 hc         1 HEL       0.019367
     51 H243         3.4850    -1.1660    -0.7650 hc         1 HEL       0.019367
     52 H251         2.0950     2.1330    -0.0920 hc         1 HEL       0.019367
     53 H252         2.0450     1.3380    -1.6710 hc         1 HEL       0.019367
     54 H253         3.4940     1.2140    -0.6630 hc         1 HEL       0.019367
@<TRIPOS>BOND
     1     1     2 1   
     2     1     5 1   
     3     2     3 1   
     4     2    24 1   
     5     2    25 1   
     6     3     4 1   
     7     3    26 1   
     8     3    30 1   
     9     4     5 1   
    10     4     7 1   
    11     5     6 1   
    12     5    31 1   
    13     6     7 1   
    14     6     8 1   
    15     6    32 1   
    16     7    29 2   
    17     8     9 1   
    18     8    33 1   
    19     9    10 2   
    20     9    11 1   
    21    11    12 1   
    22    11    34 1   
    23    11    35 1   
    24    12    13 1   
    25    12    36 1   
    26    12    37 1   
    27    13    14 1   
    28    13    38 1   
    29    13    39 1   
    30    14    15 1   
    31    14    40 1   
    32    14    41 1   
    33    15    16 1   
    34    15    19 1   
    35    15    42 1   
    36    16    17 1   
    37    16    18 1   
    38    19    20 1   
    39    19    43 1   
    40    20    21 2   
    41    20    22 1   
    42    22    23 1   
    43    22    44 1   
    44    22    45 1   
    45    23    46 1   
    46    23    47 1   
    47    23    48 1   
    48    24    49 1   
    49    24    50 1   
    50    24    51 1   
    51    25    52 1   
    52    25    53 1   
    53    25    54 1   
    54    26    27 1   
    55    26    28 1   
@<TRIPOS>SUBSTRUCTURE
     1 HEL         1 TEMP              0 ****  ****    0 ROOT
