@<TRIPOS>MOLECULE
molecule
   40    40     1     0     0
SMALL
bcc


@<TRIPOS>ATOM
      1 N1           0.0000     0.0000     0.0000 nb         1 HEN      -0.806000
      2 C2           1.4030     0.0000     0.0000 ca         1 HEN       0.293600
      3 C2A          2.0230    -0.0050    -1.3650 c3         1 HEN      -0.103400
      4 C3           2.0730     0.0000     1.2660 ca         1 HEN      -0.007200
      5 O3           3.3770     0.0020     1.2800 oh         1 HEN      -0.465100
      6 C4           1.2310    -0.0080     2.4870 ca         1 HEN       0.010700
      7 C4A          1.8880    -0.0350     3.8920 c3         1 HEN       0.222100
      8 C5          -0.2480    -0.0140     2.3430 ca         1 HEN      -0.172600
      9 C6          -0.8230    -0.0090     1.0990 ca         1 HEN       0.382200
     10 C5A         -1.1190    -0.0220     3.6170 c3         1 HEN       0.252700
     11 OP4         -1.5180     1.2890     3.9690 os         1 HEN      -0.590200
     12 P           -1.5920     1.7400     5.5480 p5         1 HEN       1.360900
     13 OP1         -1.6000     3.2240     5.5180 o          1 HEN      -0.955167
     14 OP2         -0.4210     1.2530     6.2690 o          1 HEN      -0.955167
     15 OP3         -2.8370     1.1080     6.0680 o          1 HEN      -0.955167
     16 N4A          3.2490    -0.0830     4.1890 n2         1 HEN      -0.773900
     17 CAI          3.9530    -0.2940     5.1800 ce         1 HEN       0.562600
     18 CBC          5.5120    -0.2970     5.0250 c          1 HEN       0.819300
     19 O2B          6.1230     0.7780     4.5330 o          1 HEN      -0.862300
     20 O3B          6.2110    -1.2730     5.3150 o          1 HEN      -0.862300
     21 CBI          3.3120    -0.5840     6.5300 ce         1 HEN      -0.420600
     22 CGI          3.7990    -1.6110     7.2540 c2         1 HEN      -0.036200
     23 CEI          3.2400    -1.9990     8.5970 c3         1 HEN      -0.261400
     24 PG           4.2660    -3.4650     9.2280 p5         1 HEN       1.155700
     25 OG1          3.7740    -4.8840     8.6250 o          1 HEN      -0.952833
     26 OG2          4.0520    -3.5270    10.6860 o          1 HEN      -0.952833
     27 OG3          5.6720    -3.2760     8.7480 o          1 HEN      -0.952833
     28 H2A1         2.7350    -0.8180    -1.4350 hc         1 HEN       0.015700
     29 H2A2         2.5310     0.9360    -1.5340 hc         1 HEN       0.015700
     30 H2A3         1.2490    -0.1370    -2.1120 hc         1 HEN       0.015700
     31 HO3          3.6920     0.8700     1.0880 ho         1 HEN       0.405000
     32 H4A1         1.5130     0.8450     4.4010 h1         1 HEN       0.082200
     33 H4A2         1.4530    -0.8900     4.3960 h1         1 HEN       0.082200
     34 HC6         -1.9000    -0.0100     0.9860 h4         1 HEN       0.005100
     35 H5A1        -2.0010    -0.6260     3.4400 h1         1 HEN       0.020700
     36 H5A2        -0.5520    -0.4530     4.4330 h1         1 HEN       0.020700
     37 HBIC         2.4830     0.0100     6.8970 ha         1 HEN       0.145000
     38 HGIC         4.6230    -2.1900     6.8540 ha         1 HEN       0.166000
     39 HCE1         3.3220    -1.1670     9.2850 hc         1 HEN       0.025200
     40 HCEC         2.2020    -2.2920     8.4940 hc         1 HEN       0.025200
@<TRIPOS>BOND
     1     1     2 ar
     2     1     9 ar
     3     2     3 1
     4     2     4 ar
     5     3    28 1
     6     3    29 1
     7     3    30 1
     8     4     5 1
     9     4     6 ar
    10     5    31 1
    11     6     7 1
    12     6     8 ar
    13     7    16 1
    14     7    32 1
    15     7    33 1
    16     8     9 ar
    17     8    10 1
    18     9    34 1
    19    10    11 1
    20    10    35 1
    21    10    36 1
    22    11    12 1
    23    12    13 1
    24    12    14 1
    25    12    15 1
    26    16    17 2
    27    17    18 1
    28    17    21 1
    29    18    19 1
    30    18    20 1
    31    21    22 2
    32    21    37 1
    33    22    23 1
    34    22    38 1
    35    23    24 1
    36    23    39 1
    37    23    40 1
    38    24    25 1
    39    24    26 1
    40    24    27 1
@<TRIPOS>SUBSTRUCTURE
     1 HEN         1 TEMP              0 ****  ****    0 ROOT
