@<TRIPOS>MOLECULE
HEP
   43    43     1     0     0
SMALL
bcc


@<TRIPOS>ATOM
      1 C1           1.5300     0.0000     0.0000 c3         1 HEP       0.006500
      2 C2           0.0000     0.0000     0.0000 c3         1 HEP      -0.010400
      3 C3          -0.5100     0.0000    -1.4420 c3         1 HEP      -0.072400
      4 C4          -2.0400     0.0000    -1.4420 c3         1 HEP      -0.024400
      5 C5          -2.5510    -0.0000    -2.8840 c3         1 HEP       0.006900
      6 C6           3.3090     2.5900    -3.6110 ca         1 HEP      -0.135500
      7 C7           3.7980     3.7360    -4.2070 ca         1 HEP      -0.101000
      8 C8           3.0650     4.9080    -4.1600 ca         1 HEP      -0.179000
      9 C9           1.8410     4.9340    -3.5160 ca         1 HEP      -0.101000
     10 C10          1.3470     3.7880    -2.9230 ca         1 HEP      -0.135500
     11 C11          2.0820     2.6140    -2.9640 ca         1 HEP       0.243100
     12 C12          3.1960    -0.5830     1.6790 c          1 HEP       0.559100
     13 C13          5.0460    -1.3050     3.1640 c3         1 HEP      -0.117400
     14 C14          3.6980    -0.5840     3.0990 c3         1 HEP      -0.080400
     15 C15          5.5490    -1.3060     4.5850 c          1 HEP       0.983600
     16 O1P          1.6440     2.6960    -0.1620 o          1 HEP      -0.624500
     17 O2P          3.7470     1.4880    -0.8600 o          1 HEP      -0.624500
     18 O3P          1.6010     1.4880    -2.3770 os         1 HEP      -0.375500
     19 O4           3.8510    -1.1080     0.8040 o          1 HEP      -0.653100
     20 O5           4.8950    -0.7820     5.4560 o          1 HEP      -0.925800
     21 O6           6.7200    -1.8860     4.8820 o          1 HEP      -0.925800
     22 N1           2.0180     0.0000     1.3810 ns         1 HEP      -0.146900
     23 P            2.1370     1.4870    -0.8600 p5         1 HEP       0.598600
     24 H1           1.8910    -0.8850    -0.5110 h1         1 HEP       0.056700
     25 H21         -0.3610     0.8840     0.5110 hc         1 HEP       0.002200
     26 H22         -0.3610    -0.8850     0.5110 hc         1 HEP       0.002200
     27 H31         -0.1490    -0.8840    -1.9530 hc         1 HEP       0.043200
     28 H32         -0.1490     0.8850    -1.9530 hc         1 HEP       0.043200
     29 H41         -2.4010    -0.8840    -0.9310 hc         1 HEP       0.001700
     30 H42         -2.4010     0.8850    -0.9320 hc         1 HEP       0.001700
     31 H51         -2.1880     0.8830    -3.3960 hc         1 HEP      -0.008633
     32 H52         -2.1930    -0.8860    -3.3940 hc         1 HEP      -0.008633
     33 H53         -3.6340     0.0030    -2.8840 hc         1 HEP      -0.008633
     34 H8           3.4510     5.8060    -4.6270 ha         1 HEP       0.075000
     35 H9           1.2670     5.8520    -3.4820 ha         1 HEP       0.076500
     36 H10          0.3880     3.8100    -2.4190 ha         1 HEP       0.118000
     37 H131         5.7590    -0.7940     2.5290 hc         1 HEP       0.021200
     38 H132         4.9250    -2.3260     2.8240 hc         1 HEP       0.021200
     39 H141         2.9840    -1.0940     3.7340 hc         1 HEP       0.024700
     40 H142         3.8190     0.4380     3.4400 hc         1 HEP       0.024700
     41 HN1          1.4780     0.4340     2.1020 hn         1 HEP       0.156500
     42 H6           3.8860     1.6740    -3.6470 ha         1 HEP       0.118000
     43 H7           4.7560     3.7170    -4.7120 ha         1 HEP       0.076500
@<TRIPOS>BOND
     1     1     2 1   
     2     1    22 1   
     3     1    23 1   
     4     1    24 1   
     5     2     3 1   
     6     2    25 1   
     7     2    26 1   
     8     3     4 1   
     9     3    27 1   
    10     3    28 1   
    11     4     5 1   
    12     4    29 1   
    13     4    30 1   
    14     5    31 1   
    15     5    32 1   
    16     5    33 1   
    17     6     7 ar  
    18     6    11 ar  
    19     6    42 1   
    20     7     8 ar  
    21     7    43 1   
    22     8     9 ar  
    23     8    34 1   
    24     9    10 ar  
    25     9    35 1   
    26    10    11 ar  
    27    10    36 1   
    28    11    18 1   
    29    12    14 1   
    30    12    19 2   
    31    12    22 1   
    32    13    14 1   
    33    13    15 1   
    34    13    37 1   
    35    13    38 1   
    36    14    39 1   
    37    14    40 1   
    38    15    20 1   
    39    15    21 1   
    40    16    23 1   
    41    17    23 1   
    42    18    23 1   
    43    22    41 1   
@<TRIPOS>SUBSTRUCTURE
     1 HEP         1 TEMP              0 ****  ****    0 ROOT
