@<TRIPOS>MOLECULE
molecule
   96    97     1     0     0
SMALL
bcc


@<TRIPOS>ATOM
      1 C32          0.0000     0.0000     0.0000 c3         1 HEQ      -0.080100
      2 C1           1.5300     0.0000     0.0000 c3         1 HEQ      -0.015800
      3 C31          2.0370     1.2530    -0.7170 c3         1 HEQ      -0.080100
      4 C2           2.0380     0.0000     1.4430 c3         1 HEQ      -0.076400
      5 C3           3.5510    -0.2510     1.4270 c3         1 HEQ       0.144100
      6 O3           4.0790    -0.0730     2.7430 oh         1 HEQ      -0.605800
      7 C4           3.8000    -1.6870     0.9630 c3         1 HEQ      -0.050200
      8 C5           3.0360    -1.9630    -0.2990 c2         1 HEQ      -0.103400
      9 C33          3.4380    -3.1550    -1.1290 c3         1 HEQ      -0.058900
     10 C6           2.0280    -1.2200    -0.7200 ce         1 HEQ      -0.103200
     11 C7           1.3810    -1.5960    -1.9240 ce         1 HEQ      -0.102000
     12 C8           0.8540    -2.8420    -2.0520 cf         1 HEQ      -0.145000
     13 C9           0.3100    -3.2530    -3.2810 cf         1 HEQ      -0.056200
     14 C34          0.3120    -2.3110    -4.4580 c3         1 HEQ      -0.065900
     15 C10         -0.2200    -4.5050    -3.4090 ce         1 HEQ      -0.155000
     16 C11         -0.7620    -4.9140    -4.6330 ce         1 HEQ      -0.099000
     17 C12         -1.2970    -6.1780    -4.7640 cf         1 HEQ      -0.153000
     18 C13         -1.8380    -6.5870    -5.9860 cf         1 HEQ      -0.031200
     19 C35         -1.8360    -5.6450    -7.1630 c3         1 HEQ      -0.069900
     20 C14         -2.3740    -7.8530    -6.1150 ce         1 HEQ      -0.175000
     21 C15         -2.9140    -8.2600    -7.3370 ce         1 HEQ      -0.062000
     22 C16         -3.4510    -9.5270    -7.4660 cf         1 HEQ      -0.177000
     23 C17         -3.9900    -9.9340    -8.6870 cf         1 HEQ      -0.387000
     24 C18         -4.5280   -11.2020    -8.8170 ce         1 HEQ      -0.044200
     25 C36         -4.5300   -12.1440    -7.6400 c3         1 HEQ      -0.114900
     26 C19         -5.0670   -11.6100   -10.0370 ce         1 HEQ      -0.052000
     27 C20         -5.6050   -12.8770   -10.1670 cf         1 HEQ      -0.164000
     28 C21         -6.1440   -13.2850   -11.3860 cf         1 HEQ      -0.400000
     29 C22         -6.6810   -14.5530   -11.5160 ce         1 HEQ      -0.008200
     30 C37         -6.6830   -15.4950   -10.3390 c3         1 HEQ      -0.113900
     31 C23         -7.2200   -14.9600   -12.7350 ce         1 HEQ      -0.086000
     32 C24         -7.7570   -16.2290   -12.8660 cf         1 HEQ      -0.139000
     33 C25         -8.2080   -16.6710   -14.1080 cf         1 HEQ      -0.013200
     34 C26         -9.1580   -15.9380   -14.7900 ce         1 HEQ      -0.204400
     35 C38         -9.6890   -14.6680   -14.1760 c3         1 HEQ      -0.046900
     36 C27         -9.6360   -16.3450   -16.0300 c          1 HEQ       0.575300
     37 O27        -10.4740   -15.6730   -16.6030 o          1 HEQ      -0.537100
     38 C28         -9.1260   -17.6080   -16.6730 c3         1 HEQ      -0.180400
     39 C29         -8.7110   -18.5990   -15.5820 c3         1 HEQ      -0.067400
     40 C30         -7.6480   -17.9400   -14.6940 c3         1 HEQ      -0.032800
     41 C40         -7.2630   -18.8980   -13.5630 c3         1 HEQ      -0.081600
     42 C39         -6.4090   -17.6140   -15.5300 c3         1 HEQ      -0.081600
     43 H321        -0.3610    -0.9580     0.3540 hc         1 HEQ       0.037200
     44 H322        -0.3610     0.7860     0.6530 hc         1 HEQ       0.037200
     45 H323        -0.3610     0.1720    -1.0070 hc         1 HEQ       0.037200
     46 H311         1.4670     1.4040    -1.6260 hc         1 HEQ       0.037200
     47 H312         3.0840     1.1300    -0.9630 hc         1 HEQ       0.037200
     48 H313         1.9170     2.1130    -0.0690 hc         1 HEQ       0.037200
     49 HC21         1.5450    -0.7870     2.0010 hc         1 HEQ       0.056200
     50 HC22         1.8340     0.9610     1.9000 hc         1 HEQ       0.056200
     51 HC31         4.0260     0.4390     0.7410 h1         1 HEQ       0.037700
     52 HO31         4.7880     0.5490     2.7150 ho         1 HEQ       0.401000
     53 HC41         3.4760    -2.3740     1.7360 hc         1 HEQ       0.061200
     54 HC42         4.8590    -1.8230     0.7770 hc         1 HEQ       0.061200
     55 H331         4.4580    -3.4320    -0.8910 hc         1 HEQ       0.045033
     56 H332         2.7780    -3.9860    -0.9110 hc         1 HEQ       0.045033
     57 H333         3.3670    -2.9030    -2.1800 hc         1 HEQ       0.045033
     58 HC71         1.3820    -0.9200    -2.7710 ha         1 HEQ       0.136000
     59 HC81         0.9290    -3.5470    -1.2330 ha         1 HEQ       0.138000
     60 H341         1.0220    -1.5120    -4.2800 hc         1 HEQ       0.047700
     61 H342        -0.6790    -1.8920    -4.5870 hc         1 HEQ       0.047700
     62 H343         0.5950    -2.8520    -5.3530 hc         1 HEQ       0.047700
     63 H101        -0.2220    -5.1820    -2.5630 ha         1 HEQ       0.133000
     64 H111        -0.7600    -4.2370    -5.4790 ha         1 HEQ       0.135000
     65 H121        -1.2990    -6.8550    -3.9180 ha         1 HEQ       0.134000
     66 H351        -2.6300    -5.9200    -7.8470 hc         1 HEQ       0.052367
     67 H352        -1.9950    -4.6310    -6.8140 hc         1 HEQ       0.052367
     68 H353        -0.8820    -5.7060    -7.6730 hc         1 HEQ       0.052367
     69 H141        -2.3750    -8.5300    -5.2690 ha         1 HEQ       0.132000
     70 H151        -2.9130    -7.5830    -8.1830 ha         1 HEQ       0.156000
     71 H161        -3.4520   -10.2040    -6.6200 ha         1 HEQ       0.100000
     72 H171        -4.5770    -9.6140    -7.8350 ha         1 HEQ       0.301000
     73 H361        -3.8360   -11.7850    -6.8890 hc         1 HEQ       0.047033
     74 H362        -5.5260   -12.1910    -7.2170 hc         1 HEQ       0.047033
     75 H363        -4.2290   -13.1310    -7.9670 hc         1 HEQ       0.047033
     76 H191        -5.0650   -10.9330   -10.8830 ha         1 HEQ       0.174000
     77 H201        -5.6070   -13.5540    -9.3210 ha         1 HEQ       0.097000
     78 H211        -6.7310   -12.9640   -10.5340 ha         1 HEQ       0.297000
     79 H371        -6.9040   -14.9410    -9.4340 hc         1 HEQ       0.047700
     80 H372        -5.7090   -15.9610   -10.2480 hc         1 HEQ       0.047700
     81 H373        -7.4370   -16.2580   -10.4880 hc         1 HEQ       0.047700
     82 H231        -7.1500   -14.3110   -13.6000 ha         1 HEQ       0.162000
     83 H242        -7.7590   -16.9050   -12.0190 ha         1 HEQ       0.141000
     84 H381        -9.0150   -13.8500   -14.4000 hc         1 HEQ       0.051700
     85 H382        -9.7640   -14.7900   -13.1020 hc         1 HEQ       0.051700
     86 H383       -10.6680   -14.4510   -14.5840 hc         1 HEQ       0.051700
     87 H281        -8.2690   -17.3760   -17.2940 hc         1 HEQ       0.072200
     88 H282        -9.9100   -18.0460   -17.2780 hc         1 HEQ       0.072200
     89 H291        -9.5740   -18.8580   -14.9810 hc         1 HEQ       0.050700
     90 H292        -8.2990   -19.4900   -16.0400 hc         1 HEQ       0.050700
     91 H401        -6.4320   -18.4840   -13.0060 hc         1 HEQ       0.040700
     92 H402        -8.1100   -19.0340   -12.9020 hc         1 HEQ       0.040700
     93 H403        -6.9760   -19.8550   -13.9830 hc         1 HEQ       0.040700
     94 H391        -6.2240   -18.4180   -16.2310 hc         1 HEQ       0.040700
     95 H392        -6.5730   -16.6910   -16.0730 hc         1 HEQ       0.040700
     96 H393        -5.5520   -17.5000   -14.8770 hc         1 HEQ       0.040700
@<TRIPOS>BOND
     1     1     2 1
     2     1    43 1
     3     1    44 1
     4     1    45 1
     5     2     3 1
     6     2     4 1
     7     2    10 1
     8     3    46 1
     9     3    47 1
    10     3    48 1
    11     4     5 1
    12     4    49 1
    13     4    50 1
    14     5     6 1
    15     5     7 1
    16     5    51 1
    17     6    52 1
    18     7     8 1
    19     7    53 1
    20     7    54 1
    21     8     9 1
    22     8    10 2
    23     9    55 1
    24     9    56 1
    25     9    57 1
    26    10    11 1
    27    11    12 2
    28    11    58 1
    29    12    13 1
    30    12    59 1
    31    13    14 1
    32    13    15 2
    33    14    60 1
    34    14    61 1
    35    14    62 1
    36    15    16 1
    37    15    63 1
    38    16    17 2
    39    16    64 1
    40    17    18 1
    41    17    65 1
    42    18    19 1
    43    18    20 2
    44    19    66 1
    45    19    67 1
    46    19    68 1
    47    20    21 1
    48    20    69 1
    49    21    22 2
    50    21    70 1
    51    22    23 1
    52    22    71 1
    53    23    24 2
    54    23    72 1
    55    24    25 1
    56    24    26 1
    57    25    73 1
    58    25    74 1
    59    25    75 1
    60    26    27 2
    61    26    76 1
    62    27    28 1
    63    27    77 1
    64    28    29 2
    65    28    78 1
    66    29    30 1
    67    29    31 1
    68    30    79 1
    69    30    80 1
    70    30    81 1
    71    31    32 2
    72    31    82 1
    73    32    33 1
    74    32    83 1
    75    33    34 2
    76    33    40 1
    77    34    35 1
    78    34    36 1
    79    35    84 1
    80    35    85 1
    81    35    86 1
    82    36    37 2
    83    36    38 1
    84    38    39 1
    85    38    87 1
    86    38    88 1
    87    39    40 1
    88    39    89 1
    89    39    90 1
    90    40    41 1
    91    40    42 1
    92    41    91 1
    93    41    92 1
    94    41    93 1
    95    42    94 1
    96    42    95 1
    97    42    96 1
@<TRIPOS>SUBSTRUCTURE
     1 HEQ         1 TEMP              0 ****  ****    0 ROOT
