@<TRIPOS>MOLECULE
HEQ
   96    96     1     0     0
SMALL
bcc


@<TRIPOS>ATOM
      1 C32         4.4360   -0.8570   -4.2570 c3        1 HEQ     -0.090100
      2 C1          4.9840   -2.1430   -3.6500 c3        1 HEQ      0.002200
      3 C31         6.2260   -1.8050   -2.8280 c3        1 HEQ     -0.090100
      4 C2          3.9550   -2.7610   -2.7020 c3        1 HEQ     -0.103400
      5 C3          2.7810   -3.4340   -3.3950 c3        1 HEQ      0.149100
      6 O3          1.8790   -2.5140   -4.0060 oh        1 HEQ     -0.609800
      7 C4          3.2180   -4.4140   -4.4780 c3        1 HEQ     -0.043200
      8 C5          4.5410   -4.1370   -5.0990 c2        1 HEQ     -0.098400
      9 C33         4.9070   -5.1140   -6.1570 c3        1 HEQ     -0.070900
     10 C6          5.3400   -3.1100   -4.7500 ce        1 HEQ     -0.084200
     11 C7          6.6470   -2.9010   -5.3720 ce        1 HEQ     -0.108000
     12 C8          6.9500   -2.1380   -6.4300 cf        1 HEQ     -0.130000
     13 C9          6.0470   -1.3370   -7.2460 cf        1 HEQ     -0.072200
     14 C34         6.5450    0.0170   -7.6040 c3        1 HEQ     -0.060900
     15 C10         4.8540   -1.8080   -7.6650 ce        1 HEQ     -0.134000
     16 C11         3.9180   -1.0620   -8.4740 ce        1 HEQ     -0.113000
     17 C12         2.6600   -1.4470   -8.7370 cf        1 HEQ     -0.130000
     18 C13         2.0120   -2.6730   -8.2800 cf        1 HEQ     -0.038300
     19 C35         0.8960   -2.4950   -7.3140 c3        1 HEQ     -0.068900
     20 C14         2.3720   -3.8680   -8.7020 c1        1 HEQ     -0.076900
     21 C15         2.6860   -5.0130   -9.1200 c1        1 HEQ     -0.030900
     22 C16         2.9400   -6.2310   -9.5460 ce        1 HEQ     -0.133100
     23 C17         3.9600   -6.6340  -10.4780 ce        1 HEQ     -0.127000
     24 C18         5.1010   -5.9800  -10.8030 cf        1 HEQ     -0.060200
     25 C36         5.5090   -4.6950  -10.1900 c3        1 HEQ     -0.067900
     26 C19         5.9870   -6.5650  -11.7980 cf        1 HEQ     -0.119000
     27 C20         6.9630   -5.8970  -12.4400 ce        1 HEQ     -0.130000
     28 C21         7.8090   -6.5210  -13.4290 ce        1 HEQ     -0.128000
     29 C22         8.7870   -5.8830  -14.1120 cf        1 HEQ     -0.076200
     30 C37         9.0960   -4.4460  -13.8980 c3        1 HEQ     -0.060900
     31 C23         9.6170   -6.5720  -15.0880 cf        1 HEQ     -0.108000
     32 C24         9.2420   -7.6620  -15.7770 ce        1 HEQ     -0.141000
     33 C25        10.0990   -8.3570  -16.7340 ce        1 HEQ     -0.014200
     34 C26        10.6910   -7.7130  -17.7660 cf        1 HEQ     -0.187400
     35 C38        10.5140   -6.2630  -18.0270 c3        1 HEQ     -0.059900
     36 C27        11.5670   -8.4150  -18.7300 c         1 HEQ      0.571300
     37 O27        11.9870   -7.8740  -19.7610 o         1 HEQ     -0.536100
     38 C28        11.9480   -9.8250  -18.3820 c3        1 HEQ     -0.180400
     39 C29        10.8030  -10.5540  -17.7230 c3        1 HEQ     -0.068400
     40 C30        10.2790   -9.8340  -16.4780 c3        1 HEQ     -0.019800
     41 C40         8.9540  -10.4880  -16.0940 c3        1 HEQ     -0.087100
     42 C39        11.2610  -10.0110  -15.3220 c3        1 HEQ     -0.087100
     43 H321        3.5110   -1.0690   -4.8470 hc        1 HEQ      0.039200
     44 H322        4.1950   -0.1230   -3.4500 hc        1 HEQ      0.039200
     45 H323        5.1940   -0.4060   -4.9430 hc        1 HEQ      0.039200
     46 H311        5.9450   -1.1570   -1.9640 hc        1 HEQ      0.039200
     47 H312        6.9700   -1.2590   -3.4560 hc        1 HEQ      0.039200
     48 H313        6.7030   -2.7360   -2.4390 hc        1 HEQ      0.039200
     49 HC21        4.4670   -3.5360   -2.0720 hc        1 HEQ      0.048200
     50 HC22        3.5720   -1.9630   -2.0130 hc        1 HEQ      0.048200
     51 HC31        2.1900   -3.9980   -2.6120 h1        1 HEQ      0.030700
     52 HO31        1.8450   -1.7290   -3.4470 ho        1 HEQ      0.401000
     53 HC41        2.4360   -4.4140   -5.2890 hc        1 HEQ      0.064200
     54 HC42        3.2430   -5.4450   -4.0310 hc        1 HEQ      0.064200
     55 H331        4.1450   -5.0950   -6.9790 hc        1 HEQ      0.047700
     56 H332        5.9070   -4.8890   -6.6030 hc        1 HEQ      0.047700
     57 H333        4.9340   -6.1470   -5.7300 hc        1 HEQ      0.047700
     58 HC71        7.4630   -3.4410   -4.8540 ha        1 HEQ      0.124000
     59 HC81        8.0100   -2.0680   -6.7440 ha        1 HEQ      0.122000
     60 H341        7.5650    0.2020   -7.1850 hc        1 HEQ      0.042700
     61 H342        5.8550    0.7990   -7.1990 hc        1 HEQ      0.042700
     62 H343        6.5980    0.1360   -8.7150 hc        1 HEQ      0.042700
     63 H101        4.2760   -0.0960   -8.8750 ha        1 HEQ      0.123000
     64 H111        4.5350   -2.8260   -7.3690 ha        1 HEQ      0.145000
     65 H121        1.9990   -0.7930   -9.3360 ha        1 HEQ      0.133000
     66 H351        1.3150   -2.3950   -6.2760 hc        1 HEQ      0.057700
     67 H352        0.3160   -1.5700   -7.5530 hc        1 HEQ      0.057700
     68 H353        0.2020   -3.3690   -7.3290 hc        1 HEQ      0.057700
     69 H141        2.8460    1.1430  -10.1350 ha        1 HEQ      0.000000
     70 H151        2.5540    1.6240  -10.5130 ha        1 HEQ      0.000000
     71 H161        2.2960   -7.0550   -9.1760 ha        1 HEQ      0.136000
     72 H171        3.7520   -7.6080  -10.9640 ha        1 HEQ      0.123000
     73 H361        6.6210   -4.6340  -10.0940 hc        1 HEQ      0.051033
     74 H362        5.1610   -3.8400  -10.8240 hc        1 HEQ      0.051033
     75 H363        5.0650   -4.5730   -9.1680 hc        1 HEQ      0.051033
     76 H191        5.8040   -7.6300  -12.0300 ha        1 HEQ      0.121000
     77 H201        7.1490   -4.8280  -12.2320 ha        1 HEQ      0.130000
     78 H211        7.6250   -7.5950  -13.6120 ha        1 HEQ      0.123000
     79 H371        8.1820   -3.8230  -14.0690 hc        1 HEQ      0.046033
     80 H372        9.4440   -4.2760  -12.8490 hc        1 HEQ      0.046033
     81 H373        9.8940   -4.0900  -14.5940 hc        1 HEQ      0.046033
     82 H231       10.6180   -6.1320  -15.2490 ha        1 HEQ      0.132000
     83 H242        8.2360   -8.0990  -15.6460 ha        1 HEQ      0.137000
     84 H381       10.5050   -6.0670  -19.1290 hc        1 HEQ      0.051700
     85 H382        9.5610   -5.8790  -17.5850 hc        1 HEQ      0.051700
     86 H383       11.3660   -5.6910  -17.5810 hc        1 HEQ      0.051700
     87 H281       12.8360   -9.7830  -17.6960 hc        1 HEQ      0.072200
     88 H282       12.2660  -10.3700  -19.3100 hc        1 HEQ      0.072200
     89 H291        9.9630  -10.6660  -18.4590 hc        1 HEQ      0.050700
     90 H292       11.1370  -11.5850  -17.4340 hc        1 HEQ      0.050700
     91 H401        9.0720  -11.5990  -16.0870 hc        1 HEQ      0.040367
     92 H402        8.1570  -10.2180  -16.8270 hc        1 HEQ      0.040367
     93 H403        8.6340  -10.1650  -15.0750 hc        1 HEQ      0.040367
     94 H391       12.2640   -9.6020  -15.5910 hc        1 HEQ      0.040367
     95 H392       11.3690  -11.0960  -15.0780 hc        1 HEQ      0.040367
     96 H393       10.8890   -9.4750  -14.4160 hc        1 HEQ      0.040367
@<TRIPOS>BOND
     1    1    2 1   
     2    1   43 1   
     3    1   44 1   
     4    1   45 1   
     5    2    3 1   
     6    2    4 1   
     7    2   10 1   
     8    3   46 1   
     9    3   47 1   
    10    3   48 1   
    11    4    5 1   
    12    4   49 1   
    13    4   50 1   
    14    5    6 1   
    15    5    7 1   
    16    5   51 1   
    17    6   52 1   
    18    7    8 1   
    19    7   53 1   
    20    7   54 1   
    21    8    9 1   
    22    8   10 2   
    23    9   55 1   
    24    9   56 1   
    25    9   57 1   
    26   10   11 1   
    27   11   12 2   
    28   11   58 1   
    29   12   13 1   
    30   12   59 1   
    31   13   14 1   
    32   13   15 2   
    33   14   60 1   
    34   14   61 1   
    35   14   62 1   
    36   15   16 1   
    37   15   64 1   
    38   16   17 2   
    39   16   63 1   
    40   17   18 1   
    41   17   65 1   
    42   18   19 1   
    43   18   20 2   
    44   19   66 1   
    45   19   67 1   
    46   19   68 1   
    47   20   21 2   
    48   21   22 2   
    49   22   23 1   
    50   22   71 1   
    51   23   24 2   
    52   23   72 1   
    53   24   25 1   
    54   24   26 1   
    55   25   73 1   
    56   25   74 1   
    57   25   75 1   
    58   26   27 2   
    59   26   76 1   
    60   27   28 1   
    61   27   77 1   
    62   28   29 2   
    63   28   78 1   
    64   29   30 1   
    65   29   31 1   
    66   30   79 1   
    67   30   80 1   
    68   30   81 1   
    69   31   32 2   
    70   31   82 1   
    71   32   33 1   
    72   32   83 1   
    73   33   34 2   
    74   33   40 1   
    75   34   35 1   
    76   34   36 1   
    77   35   84 1   
    78   35   85 1   
    79   35   86 1   
    80   36   37 2   
    81   36   38 1   
    82   38   39 1   
    83   38   87 1   
    84   38   88 1   
    85   39   40 1   
    86   39   89 1   
    87   39   90 1   
    88   40   41 1   
    89   40   42 1   
    90   41   91 1   
    91   41   92 1   
    92   41   93 1   
    93   42   94 1   
    94   42   95 1   
    95   42   96 1   
    96   69   70 1   
@<TRIPOS>SUBSTRUCTURE
     1 HEQ         1 TEMP              0 ****  ****    0 ROOT
