@<TRIPOS>MOLECULE
HET
   64    68     1     0     0
SMALL
bcc


@<TRIPOS>ATOM
      1 N9A          0.0000     0.0000     0.0000 na         1 HET       0.214000
      2 C8A          1.3630     0.0000     0.0000 cc         1 HET       0.240700
      3 N7A          1.8080     0.0000     1.2230 nd         1 HET      -0.493100
      4 C5A          0.7620     0.0060     2.0830 ca         1 HET      -0.240200
      5 C6A          0.6340    -0.0000     3.4830 ca         1 HET       0.581200
      6 N6A          1.7530    -0.0010     4.2970 nu         1 HET      -0.272300
      7 N1A         -0.5890     0.0010     4.0060 nb         1 HET      -0.709000
      8 C2A         -1.6620     0.0010     3.2370 ca         1 HET       0.655300
      9 N3A         -1.5900     0.0000     1.9230 nb         1 HET      -0.661000
     10 C4A         -0.4110     0.0000     1.3090 ca         1 HET       0.264800
     11 C1A         -0.8670    -0.0010    -1.1810 c3         1 HET      -0.033700
     12 CT0         -1.2700     1.4370    -1.5180 c3         1 HET       0.012900
     13 CT1         -2.1620     1.4360    -2.7320 ca         1 HET      -0.076300
     14 CT2         -3.5330     1.3320    -2.5820 ca         1 HET      -0.113000
     15 CT3         -4.3540     1.3320    -3.6960 ca         1 HET      -0.072000
     16 CT4         -3.8060     1.4350    -4.9590 ca         1 HET      -0.154000
     17 CT5         -2.4320     1.5410    -5.1120 ca         1 HET       0.132100
     18 CT6         -1.6100     1.5460    -3.9930 ca         1 HET      -0.130000
     19 OH          -1.8900     1.6450    -6.3550 oh         1 HET      -0.497100
     20 CR1          1.6110    -0.1260     5.6810 ca         1 HET       0.016600
     21 CR2          2.4940     0.5220     6.5340 ca         1 HET      -0.143500
     22 CR3          2.3500     0.3950     7.9020 ca         1 HET      -0.022000
     23 CR4          1.3280    -0.3760     8.4220 ca         1 HET      -0.129500
     24 CR5          0.4490    -1.0260     7.5760 ca         1 HET      -0.022000
     25 CR6          0.5840    -0.9000     6.2080 ca         1 HET      -0.143500
     26 PA           1.1420    -0.5400    10.2200 py         1 HET       0.393200
     27 OA1          2.4700    -0.4290    10.8650 o          1 HET      -0.599300
     28 CA2          0.4120    -2.1640    10.6100 c3         1 HET      -0.005800
     29 CA3          0.0520     0.7820    10.8420 c3         1 HET      -0.005800
     30 CS1         -3.0210     0.0020     3.8890 c3         1 HET      -0.087000
     31 CS2         -3.1840    -1.2510     4.7680 c3         1 HET      -0.019900
     32 CS3         -3.4140    -0.7490     6.2090 c3         1 HET      -0.024900
     33 CS4         -3.9730     0.6840     6.0280 c3         1 HET      -0.024900
     34 CS5         -3.1570     1.2190     4.8250 c3         1 HET      -0.019900
     35 H8A          1.9840    -0.0000    -0.8870 h5         1 HET       0.032800
     36 H6A          2.6650     0.0890     3.8940 hn         1 HET       0.302800
     37 H1A1        -1.7550    -0.5860    -0.9770 h1         1 HET       0.043700
     38 H1A2        -0.3340    -0.4330    -2.0200 h1         1 HET       0.043700
     39 HT01        -1.8020     1.8690    -0.6790 hc         1 HET       0.031700
     40 HT02        -0.3820     2.0220    -1.7230 hc         1 HET       0.031700
     41 HT2         -3.9640     1.2510    -1.5920 ha         1 HET       0.114000
     42 HT3         -5.4270     1.2500    -3.5760 ha         1 HET       0.105000
     43 HT4         -4.4490     1.4330    -5.8310 ha         1 HET       0.113000
     44 HT6         -0.5360     1.6290    -4.1100 ha         1 HET       0.117000
     45 HOH         -2.1220     2.4780    -6.7300 ho         1 HET       0.404000
     46 HR2          3.2960     1.1270     6.1280 ha         1 HET       0.123500
     47 HR3          3.0380     0.9010     8.5680 ha         1 HET       0.107000
     48 HR5         -0.3520    -1.6300     7.9870 ha         1 HET       0.107000
     49 HR6         -0.1060    -1.4100     5.5460 ha         1 HET       0.123500
     50 HA21        -0.6390    -2.1600    10.3470 hc         1 HET       0.034700
     51 HA22         0.5180    -2.3620    11.6690 hc         1 HET       0.034700
     52 HA23         0.9220    -2.9340    10.0450 hc         1 HET       0.034700
     53 HA31         0.0620     0.7780    11.9250 hc         1 HET       0.034700
     54 HA32        -0.9580     0.6130    10.4900 hc         1 HET       0.034700
     55 HA33         0.4050     1.7410    10.4820 hc         1 HET       0.034700
     56 HS1         -3.7990     0.0270     3.1350 hc         1 HET       0.041700
     57 HS21        -4.0390    -1.8270     4.4370 hc         1 HET       0.020700
     58 HS22        -2.2840    -1.8520     4.7260 hc         1 HET       0.020700
     59 HS31        -4.1380    -1.3750     6.7160 hc         1 HET       0.013950
     60 HS32        -2.4780    -0.7230     6.7540 hc         1 HET       0.013950
     61 HS41        -5.0290     0.6550     5.7910 hc         1 HET       0.013950
     62 HS42        -3.7860     1.2810     6.9120 hc         1 HET       0.013950
     63 HS51        -3.6960     2.0180     4.3300 hc         1 HET       0.020700
     64 HS52        -2.1800     1.5560     5.1510 hc         1 HET       0.020700
@<TRIPOS>BOND
     1     1     2 1   
     2     1    10 1   
     3     1    11 1   
     4     2     3 2   
     5     2    35 1   
     6     3     4 1   
     7     4     5 ar  
     8     4    10 ar  
     9     5     6 1   
    10     5     7 ar  
    11     6    20 1   
    12     6    36 1   
    13     7     8 ar  
    14     8     9 ar  
    15     8    30 1   
    16     9    10 ar  
    17    11    12 1   
    18    11    37 1   
    19    11    38 1   
    20    12    13 1   
    21    12    39 1   
    22    12    40 1   
    23    13    14 ar  
    24    13    18 ar  
    25    14    15 ar  
    26    14    41 1   
    27    15    16 ar  
    28    15    42 1   
    29    16    17 ar  
    30    16    43 1   
    31    17    18 ar  
    32    17    19 1   
    33    18    44 1   
    34    19    45 1   
    35    20    21 ar  
    36    20    25 ar  
    37    21    22 ar  
    38    21    46 1   
    39    22    23 ar  
    40    22    47 1   
    41    23    24 ar  
    42    23    26 1   
    43    24    25 ar  
    44    24    48 1   
    45    25    49 1   
    46    26    27 2   
    47    26    28 1   
    48    26    29 1   
    49    28    50 1   
    50    28    51 1   
    51    28    52 1   
    52    29    53 1   
    53    29    54 1   
    54    29    55 1   
    55    30    31 1   
    56    30    34 1   
    57    30    56 1   
    58    31    32 1   
    59    31    57 1   
    60    31    58 1   
    61    32    33 1   
    62    32    59 1   
    63    32    60 1   
    64    33    34 1   
    65    33    61 1   
    66    33    62 1   
    67    34    63 1   
    68    34    64 1   
@<TRIPOS>SUBSTRUCTURE
     1 HET         1 TEMP              0 ****  ****    0 ROOT
