@<TRIPOS>MOLECULE
HEX
   20    19     1     0     0
SMALL
bcc


@<TRIPOS>ATOM
      1 C1          0.0050    0.0000   -0.0040 c3        1 HEX     -0.092100
      2 C2          1.5120   -0.0000    0.0170 c3        1 HEX     -0.080400
      3 C3          2.0480   -0.0000    1.4330 c3        1 HEX     -0.079400
      4 C4          3.5620    0.0000    1.4480 c3        1 HEX     -0.079400
      5 C5          4.0980   -0.0000    2.8640 c3        1 HEX     -0.080400
      6 C6          5.6050    0.0000    2.8850 c3        1 HEX     -0.092100
      7 H11        -0.3960    0.9050    0.5130 hc        1 HEX      0.032700
      8 H12        -0.3960   -0.9050    0.5130 hc        1 HEX      0.032700
      9 H13        -0.3690    0.0000   -1.0560 hc        1 HEX      0.032700
     10 H21         1.8960   -0.9020   -0.5280 hc        1 HEX      0.038700
     11 H22         1.8960    0.9020   -0.5280 hc        1 HEX      0.038700
     12 H31         1.6660    0.9020    1.9780 hc        1 HEX      0.038700
     13 H32         1.6660   -0.9020    1.9780 hc        1 HEX      0.038700
     14 H41         3.9440    0.9020    0.9020 hc        1 HEX      0.038700
     15 H42         3.9440   -0.9020    0.9020 hc        1 HEX      0.038700
     16 H51         3.7140   -0.9020    3.4090 hc        1 HEX      0.038700
     17 H52         3.7140    0.9020    3.4090 hc        1 HEX      0.038700
     18 H61         6.0060   -0.9050    2.3680 hc        1 HEX      0.032700
     19 H62         6.0060    0.9050    2.3680 hc        1 HEX      0.032700
     20 H63         5.9790    0.0000    3.9370 hc        1 HEX      0.032700
@<TRIPOS>BOND
     1    1    2 1   
     2    1    7 1   
     3    1    8 1   
     4    1    9 1   
     5    2    3 1   
     6    2   10 1   
     7    2   11 1   
     8    3    4 1   
     9    3   12 1   
    10    3   13 1   
    11    4    5 1   
    12    4   14 1   
    13    4   15 1   
    14    5    6 1   
    15    5   16 1   
    16    5   17 1   
    17    6   18 1   
    18    6   19 1   
    19    6   20 1   
@<TRIPOS>SUBSTRUCTURE
     1 HEX         1 TEMP              0 ****  ****    0 ROOT
