@<TRIPOS>MOLECULE
molecule
   20    19     1     0     0
SMALL
bcc


@<TRIPOS>ATOM
      1 C1           0.0000     0.0000     0.0000 c3         1 HEX      -0.092100
      2 C2           1.5290     0.0000     0.0000 c3         1 HEX      -0.084400
      3 C3           2.0400     0.0000     1.4410 c3         1 HEX      -0.082400
      4 C4           3.5700    -0.0000     1.4400 c3         1 HEX      -0.082400
      5 C5           4.0810    -0.0000     2.8810 c3         1 HEX      -0.084400
      6 C6           5.6100    -0.0000     2.8810 c3         1 HEX      -0.092100
      7 H11         -0.3610    -0.8850     0.5110 hc         1 HEX       0.032367
      8 H12         -0.3610     0.8850     0.5110 hc         1 HEX       0.032367
      9 H13         -0.3610    -0.0000    -1.0210 hc         1 HEX       0.032367
     10 H21          1.8900    -0.8840    -0.5110 hc         1 HEX       0.039700
     11 H22          1.8900     0.8840    -0.5110 hc         1 HEX       0.039700
     12 H31          1.6800    -0.8840     1.9520 hc         1 HEX       0.040700
     13 H32          1.6800     0.8840     1.9520 hc         1 HEX       0.040700
     14 H41          3.9300    -0.8840     0.9290 hc         1 HEX       0.040700
     15 H42          3.9300     0.8840     0.9290 hc         1 HEX       0.040700
     16 H51          3.7200    -0.8840     3.3920 hc         1 HEX       0.039700
     17 H52          3.7200     0.8840     3.3920 hc         1 HEX       0.039700
     18 H61          5.9710    -0.8850     2.3700 hc         1 HEX       0.032367
     19 H62          5.9710     0.8850     2.3700 hc         1 HEX       0.032367
     20 H63          5.9710    -0.0000     3.9020 hc         1 HEX       0.032367
@<TRIPOS>BOND
     1     1     2 1
     2     1     7 1
     3     1     8 1
     4     1     9 1
     5     2     3 1
     6     2    10 1
     7     2    11 1
     8     3     4 1
     9     3    12 1
    10     3    13 1
    11     4     5 1
    12     4    14 1
    13     4    15 1
    14     5     6 1
    15     5    16 1
    16     5    17 1
    17     6    18 1
    18     6    19 1
    19     6    20 1
@<TRIPOS>SUBSTRUCTURE
     1 HEX         1 TEMP              0 ****  ****    0 ROOT
