@<TRIPOS>MOLECULE
molecule
   42    42     1     0     0
SMALL
bcc


@<TRIPOS>ATOM
      1 N1           0.0000     0.0000     0.0000 nb         1 HEY      -0.766000
      2 C2           1.4160     0.0000     0.0000 ca         1 HEY       0.283600
      3 C2A          2.1010    -0.0020    -1.3690 c3         1 HEY      -0.109400
      4 C3           2.1400     0.0000     1.2510 ca         1 HEY      -0.021200
      5 O3           3.4850     0.0020     1.2770 oh         1 HEY      -0.451100
      6 C4           1.4030    -0.0020     2.4610 ca         1 HEY      -0.004300
      7 C4A          2.1250    -0.0060     3.8150 c3         1 HEY       0.286100
      8 C5          -0.0640     0.0020     2.4050 ca         1 HEY      -0.130600
      9 C6          -0.7200     0.0030     1.1750 ca         1 HEY       0.337200
     10 C5A         -0.9910     0.0080     3.6220 c3         1 HEY       0.266700
     11 OP4         -0.9750     1.3510     4.1150 os         1 HEY      -0.560200
     12 P           -1.2220     1.7250     5.6260 p5         1 HEY       1.242900
     13 OP1         -0.1100     1.1880     6.4420 o          1 HEY      -0.917833
     14 OP2         -2.6480     1.0360     6.0940 o          1 HEY      -0.917833
     15 OP3         -1.4780     3.1700     5.7210 o          1 HEY      -0.917833
     16 N4A          3.2690     0.6880     4.2490 nu         1 HEY      -0.774000
     17 CAI          4.1340     0.6840     5.1840 ce         1 HEY       0.013800
     18 CBC          5.6120     0.7820     4.7230 c          1 HEY       0.932800
     19 O2B          6.4750     0.6670     5.5990 o          1 HEY      -0.889800
     20 O3B          5.8930     0.8810     3.5360 o          1 HEY      -0.889800
     21 CBI          3.6520     0.5930     6.5010 c2         1 HEY      -0.161200
     22 CGI          4.3270     0.5620     7.8900 c3         1 HEY       0.049800
     23 CEI          5.0980     1.8610     8.1710 c3         1 HEY      -0.267600
     24 PG           4.0690     3.3470     8.3810 p5         1 HEY       1.231700
     25 OG1          4.7900     4.3470     9.2560 o          1 HEY      -0.972167
     26 OG2          3.8530     3.8980     6.9990 o          1 HEY      -0.972167
     27 OG3          2.8180     2.9610     9.0830 o          1 HEY      -0.972167
     28 H2A1         2.5810    -0.9600    -1.5320 hc         1 HEY       0.015367
     29 H2A2         2.8450     0.7850    -1.4020 hc         1 HEY       0.015367
     30 H2A3         1.3620     0.1680    -2.1430 hc         1 HEY       0.015367
     31 HO3          3.8070    -0.8350     0.9860 ho         1 HEY       0.380000
     32 H4A1         1.3580     0.2610     4.5320 h1         1 HEY       0.046700
     33 H4A2         2.3560    -1.0490     3.9960 h1         1 HEY       0.046700
     34 H6          -1.8030     0.0040     1.1430 h4         1 HEY       0.003100
     35 H5A1        -0.6200    -0.6720     4.3790 h1         1 HEY       0.010700
     36 H5A2        -1.9960    -0.2700     3.3280 h1         1 HEY       0.010700
     37 H4A          3.4700     1.4320     3.6110 hn         1 HEY       0.392800
     38 HBI          2.5740     0.5340     6.5800 ha         1 HEY       0.149000
     39 HGI1         3.5660     0.4310     8.6490 hc         1 HEY      -0.021300
     40 HGI2         5.0150    -0.2740     7.9300 hc         1 HEY      -0.021300
     41 HEI1         5.6810     1.7210     9.0730 hc         1 HEY       0.005200
     42 HEI2         5.7810     2.0350     7.3480 hc         1 HEY       0.005200
@<TRIPOS>BOND
     1     1     2 ar
     2     1     9 ar
     3     2     3 1
     4     2     4 ar
     5     3    28 1
     6     3    29 1
     7     3    30 1
     8     4     5 1
     9     4     6 ar
    10     5    31 1
    11     6     7 1
    12     6     8 ar
    13     7    16 1
    14     7    32 1
    15     7    33 1
    16     8     9 ar
    17     8    10 1
    18     9    34 1
    19    10    11 1
    20    10    35 1
    21    10    36 1
    22    11    12 1
    23    12    13 1
    24    12    14 1
    25    12    15 1
    26    16    17 1
    27    16    37 1
    28    17    18 1
    29    17    21 2
    30    18    19 1
    31    18    20 1
    32    21    22 1
    33    21    38 1
    34    22    23 1
    35    22    39 1
    36    22    40 1
    37    23    24 1
    38    23    41 1
    39    23    42 1
    40    24    25 1
    41    24    26 1
    42    24    27 1
@<TRIPOS>SUBSTRUCTURE
     1 HEY         1 TEMP              0 ****  ****    0 ROOT
