@<TRIPOS>MOLECULE
molecule
   22    21     1     0     0
SMALL
bcc


@<TRIPOS>ATOM
      1 O1           0.0000     0.0000     0.0000 oh         1 HEZ      -0.612800
      2 C1           1.4280     0.0000     0.0000 c3         1 HEZ       0.140400
      3 C2           1.9390     0.0000     1.4420 c3         1 HEZ      -0.081400
      4 C3           3.4690    -0.0000     1.4410 c3         1 HEZ      -0.080400
      5 C4           3.9800    -0.0000     2.8820 c3         1 HEZ      -0.080400
      6 C5           5.5100    -0.0000     2.8810 c3         1 HEZ      -0.081400
      7 C6           6.0210    -0.0000     4.3230 c3         1 HEZ       0.140400
      8 O6           7.4490    -0.0000     4.3230 oh         1 HEZ      -0.612800
      9 HO1         -0.3140    -0.0000    -0.8890 ho         1 HEZ       0.401500
     10 H11          1.7890     0.8840    -0.5110 h1         1 HEZ       0.018700
     11 H12          1.7890    -0.8840    -0.5110 h1         1 HEZ       0.018700
     12 H21          1.5790    -0.8840     1.9530 hc         1 HEZ       0.053700
     13 H22          1.5790     0.8840     1.9530 hc         1 HEZ       0.053700
     14 H31          3.8300    -0.8840     0.9300 hc         1 HEZ       0.042700
     15 H32          3.8300     0.8840     0.9300 hc         1 HEZ       0.042700
     16 H41          3.6190     0.8840     3.3930 hc         1 HEZ       0.042700
     17 H42          3.6190    -0.8840     3.3930 hc         1 HEZ       0.042700
     18 H51          5.8710     0.8840     2.3700 hc         1 HEZ       0.053700
     19 H52          5.8710    -0.8840     2.3700 hc         1 HEZ       0.053700
     20 H61          5.6600     0.8840     4.8340 h1         1 HEZ       0.018700
     21 H62          5.6600    -0.8840     4.8340 h1         1 HEZ       0.018700
     22 HO6          7.7640    -0.0000     5.2120 ho         1 HEZ       0.401500
@<TRIPOS>BOND
     1     1     2 1
     2     1     9 1
     3     2     3 1
     4     2    10 1
     5     2    11 1
     6     3     4 1
     7     3    12 1
     8     3    13 1
     9     4     5 1
    10     4    14 1
    11     4    15 1
    12     5     6 1
    13     5    16 1
    14     5    17 1
    15     6     7 1
    16     6    18 1
    17     6    19 1
    18     7     8 1
    19     7    20 1
    20     7    21 1
    21     8    22 1
@<TRIPOS>SUBSTRUCTURE
     1 HEZ         1 TEMP              0 ****  ****    0 ROOT
