@<TRIPOS>MOLECULE
molecule
   27    27     1     0     0
SMALL
bcc


@<TRIPOS>ATOM
      1 P1           0.0000     0.0000     0.0000 p5         1 HF1       1.034100
      2 O3           1.4800     0.0000     0.0000 o          1 HF1      -0.906500
      3 O1          -0.5360     0.0000     1.5190 o          1 HF1      -0.906500
      4 O2          -0.5360    -1.3150    -0.7570 o          1 HF1      -0.906500
      5 C2           0.2450     2.3430    -1.3520 c2         1 HF1      -0.245200
      6 C3           0.2510     4.8210    -1.3420 c3         1 HF1       0.014700
      7 C9           1.1360     7.2050    -0.0900 ca         1 HF1      -0.176000
      8 C8           0.3620     7.5540    -1.1870 ca         1 HF1       0.058900
      9 C7           0.1590     8.9000    -1.4910 ca         1 HF1       0.075100
     10 OH          -0.5970     9.2480    -2.5670 oh         1 HF1      -0.512100
     11 C6           0.7220     9.8790    -0.6930 ca         1 HF1      -0.131000
     12 C5           1.4900     9.5250     0.4010 ca         1 HF1      -0.196000
     13 C10          1.6970     8.1900     0.7020 ca         1 HF1       0.142900
     14 F            2.4480     7.8480     1.7730 f          1 HF1      -0.142900
     15 S1          -0.3550     6.3030    -2.1980 ss         1 HF1      -0.264000
     16 C4          -0.2590     3.5730    -2.0630 c3         1 HF1      -0.032200
     17 C1          -0.6050     1.4800    -0.8540 c2         1 HF1      -0.177600
     18 H2           1.3100     2.1720    -1.2540 ha         1 HF1       0.149000
     19 H31         -0.1090     4.8210    -0.3200 h1         1 HF1       0.069700
     20 H32          1.3350     4.8220    -1.3430 h1         1 HF1       0.069700
     21 HO7         -0.0330     9.4620    -3.2920 ho         1 HF1       0.408000
     22 H6           0.5630    10.9250    -0.9270 ha         1 HF1       0.127000
     23 H5           1.9300    10.2950     1.0240 ha         1 HF1       0.130000
     24 H41          0.1020     3.5730    -3.0840 hc         1 HF1       0.028200
     25 H42         -1.3420     3.5720    -2.0620 hc         1 HF1       0.028200
     26 H1          -1.6710     1.6510    -0.9520 ha         1 HF1       0.079000
     27 H9           1.2980     6.1600     0.1480 ha         1 HF1       0.181000
@<TRIPOS>BOND
     1     1     2 1
     2     1     3 1
     3     1     4 1
     4     1    17 1
     5     5    16 1
     6     5    17 2
     7     5    18 1
     8     6    15 1
     9     6    16 1
    10     6    19 1
    11     6    20 1
    12     7     8 ar
    13     7    13 ar
    14     7    27 1
    15     8     9 ar
    16     8    15 1
    17     9    10 1
    18     9    11 ar
    19    10    21 1
    20    11    12 ar
    21    11    22 1
    22    12    13 ar
    23    12    23 1
    24    13    14 1
    25    16    24 1
    26    16    25 1
    27    17    26 1
@<TRIPOS>SUBSTRUCTURE
     1 HF1         1 TEMP              0 ****  ****    0 ROOT
