@<TRIPOS>MOLECULE
HF1
   27    27     1     0     0
SMALL
bcc


@<TRIPOS>ATOM
      1 P1          0.3120    0.3000   -0.3820 p5        1 HF1      1.217100
      2 O3          0.8770    0.1700    1.0110 o         1 HF1     -0.938167
      3 O1         -0.5240   -0.8590   -0.8630 o         1 HF1     -0.938167
      4 O2          1.3020    0.8340   -1.4110 o         1 HF1     -0.938167
      5 C2         -0.9750    2.8150   -0.7070 c2        1 HF1     -0.220200
      6 C3          0.7500    4.5640   -1.1450 c3        1 HF1      0.089700
      7 C9          1.7330    7.4210   -0.4580 ca        1 HF1     -0.160000
      8 C8          0.4650    7.3920   -1.0460 ca        1 HF1     -0.010100
      9 C7         -0.2320    8.6200   -1.1710 ca        1 HF1      0.099100
     10 OH         -1.4920    8.7130   -1.7250 oh        1 HF1     -0.519100
     11 C6          0.3280    9.8280   -0.7420 ca        1 HF1     -0.138000
     12 C5          1.5960    9.8430   -0.1710 ca        1 HF1     -0.185000
     13 C10         2.2960    8.6340   -0.0260 ca        1 HF1      0.098900
     14 F           3.5330    8.6410    0.5360 f         1 HF1     -0.160900
     15 S1         -0.2610    5.9830   -1.6170 ss        1 HF1     -0.297000
     16 C4          0.0030    3.3800   -1.6720 c3        1 HF1     -0.127200
     17 C1         -0.9000    1.5970   -0.1810 c2        1 HF1     -0.196600
     18 H2         -1.8040    3.5070   -0.4620 ha        1 HF1      0.022000
     19 H31         0.8720    4.5200   -0.0400 h1        1 HF1      0.060700
     20 H32         1.7480    4.6740   -1.6290 h1        1 HF1      0.060700
     21 HO7        -1.8290    7.8090   -1.8490 ho        1 HF1      0.440000
     22 H6         -0.2440   10.7580   -0.8590 ha        1 HF1      0.131000
     23 H5          2.0480   10.7840    0.1680 ha        1 HF1      0.126000
     24 H41        -0.4930    3.6300   -2.6470 hc        1 HF1      0.119700
     25 H42         0.7670    2.5100   -1.8600 hc        1 HF1      0.119700
     26 H1         -1.6920    1.2740    0.5120 ha        1 HF1      0.080000
     27 H9          2.3010    6.4870   -0.3270 ha        1 HF1      0.165000
@<TRIPOS>BOND
     1    1    2 1   
     2    1    3 1   
     3    1    4 1   
     4    1   17 1   
     5    5   16 1   
     6    5   17 2   
     7    5   18 1   
     8    6   15 1   
     9    6   16 1   
    10    6   19 1   
    11    6   20 1   
    12    7    8 ar  
    13    7   13 ar  
    14    7   27 1   
    15    8    9 ar  
    16    8   15 1   
    17    9   10 1   
    18    9   11 ar  
    19   10   21 1   
    20   11   12 ar  
    21   11   22 1   
    22   12   13 ar  
    23   12   23 1   
    24   13   14 1   
    25   16   24 1   
    26   16   25 1   
    27   17   26 1   
@<TRIPOS>SUBSTRUCTURE
     1 HF1         1 TEMP              0 ****  ****    0 ROOT
