@<TRIPOS>MOLECULE
molecule
   12    12     1     0     0
SMALL
bcc


@<TRIPOS>ATOM
      1 F6          -2.7370     0.0370    -0.0030 f          1 HFB      -0.094900
      2 C6          -1.3860     0.0190    -0.0030 ca         1 HFB       0.094900
      3 C1          -0.6770     1.2090    -0.0000 ca         1 HFB       0.094900
      4 F1          -1.3360     2.3880     0.0020 f          1 HFB      -0.094900
      5 C5          -0.7090    -1.1910     0.0000 ca         1 HFB       0.094900
      6 F5          -1.4010    -2.3510     0.0030 f          1 HFB      -0.094900
      7 C4           0.6770    -1.2090    -0.0000 ca         1 HFB       0.094900
      8 F4           1.3360    -2.3880     0.0030 f          1 HFB      -0.094900
      9 C3           1.3860    -0.0190    -0.0030 ca         1 HFB       0.094900
     10 F3           2.7370    -0.0370    -0.0040 f          1 HFB      -0.094900
     11 C2           0.7090     1.1910     0.0000 ca         1 HFB       0.094900
     12 F2           1.4010     2.3510     0.0040 f          1 HFB      -0.094900
@<TRIPOS>BOND
     1     1     2 1
     2     2     3 ar
     3     2     5 ar
     4     3     4 1
     5     3    11 ar
     6     5     6 1
     7     5     7 ar
     8     7     8 1
     9     7     9 ar
    10     9    10 1
    11     9    11 ar
    12    11    12 1
@<TRIPOS>SUBSTRUCTURE
     1 HFB         1 TEMP              0 ****  ****    0 ROOT
