@<TRIPOS>MOLECULE
HFB
   12    12     1     0     0
SMALL
bcc


@<TRIPOS>ATOM
      1 F6         -2.7640    0.0370   -0.0000 f         1 HFB     -0.093900
      2 C6         -1.4160    0.0190   -0.0000 ca        1 HFB      0.093900
      3 C1         -0.6910    1.2360   -0.0000 ca        1 HFB      0.093900
      4 F1         -1.3500    2.4130   -0.0000 f         1 HFB     -0.093900
      5 C5         -0.7250   -1.2170   -0.0000 ca        1 HFB      0.093900
      6 F5         -1.4150   -2.3750   -0.0000 f         1 HFB     -0.093900
      7 C4          0.6910   -1.2360   -0.0000 ca        1 HFB      0.093900
      8 F4          1.3500   -2.4130   -0.0000 f         1 HFB     -0.093900
      9 C3          1.4160   -0.0190   -0.0000 ca        1 HFB      0.093900
     10 F3          2.7640   -0.0370   -0.0000 f         1 HFB     -0.093900
     11 C2          0.7250    1.2170   -0.0000 ca        1 HFB      0.093900
     12 F2          1.4150    2.3750   -0.0000 f         1 HFB     -0.093900
@<TRIPOS>BOND
     1    1    2 1   
     2    2    3 ar  
     3    2    5 ar  
     4    3    4 1   
     5    3   11 ar  
     6    5    6 1   
     7    5    7 ar  
     8    7    8 1   
     9    7    9 ar  
    10    9   10 1   
    11    9   11 ar  
    12   11   12 1   
@<TRIPOS>SUBSTRUCTURE
     1 HFB         1 TEMP              0 ****  ****    0 ROOT
