@<TRIPOS>MOLECULE
molecule
   43    45     1     0     0
SMALL
bcc


@<TRIPOS>ATOM
      1 O2A          0.0000     0.0000     0.0000 o          1 HFD      -0.854500
      2 PA           1.4800     0.0000     0.0000 p5         1 HFD       1.443800
      3 O1A          2.0160     0.0000     1.5180 o          1 HFD      -0.854500
      4 O3A          2.0160     1.3140    -0.7590 os         1 HFD      -0.724800
      5 PB           1.6170     2.8730    -0.7140 p5         1 HFD       1.517800
      6 O1B          0.2310     3.0950    -1.5010 o          1 HFD      -0.872500
      7 O2B          1.4580     3.3010     0.6940 o          1 HFD      -0.872500
      8 O3B          2.7770     3.7450    -1.4130 os         1 HFD      -0.733800
      9 PG           3.2010     5.2960    -1.3490 p5         1 HFD       1.334900
     10 O3G          4.6770     5.4740    -1.9670 o          1 HFD      -0.825500
     11 O2G          2.1540     6.1750    -2.1990 o          1 HFD      -0.825500
     12 O1G          3.1980     5.7510     0.0600 o          1 HFD      -0.825500
     13 O5'          2.0170    -1.3150    -0.7580 os         1 HFD      -0.587200
     14 C5'          1.6280    -2.6400    -0.3900 c3         1 HFD       0.236400
     15 C4'          2.3180    -3.6490    -1.3100 c3         1 HFD       0.131100
     16 C3'          1.8240    -5.0730    -0.9910 c3         1 HFD       0.070100
     17 O3'          1.2050    -5.6560    -2.1400 oh         1 HFD      -0.606800
     18 C2'          3.1110    -5.8470    -0.6170 c3         1 HFD       0.072100
     19 O2'          3.2790    -5.9010     0.8020 oh         1 HFD      -0.566800
     20 C1'          4.2140    -4.9770    -1.2720 c3         1 HFD       0.267800
     21 O4'          3.7370    -3.6280    -1.0820 os         1 HFD      -0.363600
     22 N9           5.4970    -5.1720    -0.5900 na         1 HFD      -0.239000
     23 C4           6.4070    -6.1660    -0.8420 ca         1 HFD       0.481800
     24 C5           7.4730    -5.9510     0.0470 ca         1 HFD      -0.191200
     25 N7           7.1640    -4.8550     0.7820 nc         1 HFD      -0.616100
     26 C8           6.0080    -4.3920     0.4060 cd         1 HFD       0.436700
     27 N3           6.4640    -7.1950    -1.6830 nb         1 HFD      -0.848000
     28 C2           7.5070    -8.0020    -1.6860 ca         1 HFD       0.810200
     29 F2           7.5270    -9.0350    -2.5570 f          1 HFD      -0.244200
     30 N1           8.5330    -7.8380    -0.8680 nb         1 HFD      -0.822000
     31 C6           8.5620    -6.8380     0.0070 ca         1 HFD       0.666200
     32 N6           9.6390    -6.6740     0.8590 nv         1 HFD      -1.033500
     33 H5           1.9180    -2.8290     0.6370 h1         1 HFD       0.030200
     34 H6           0.5530    -2.7390    -0.4850 h1         1 HFD       0.030200
     35 H7           2.1100    -3.4120    -2.3460 h1         1 HFD       0.075700
     36 H8           1.1380    -5.0550    -0.1530 h1         1 HFD       0.059700
     37 H9           0.3890    -6.0560    -1.8880 ho         1 HFD       0.387000
     38 H10          3.1000    -6.8400    -1.0490 h1         1 HFD       0.044700
     39 H11          2.8590    -6.6750     1.1390 ho         1 HFD       0.382000
     40 H12          4.2980    -5.2030    -2.3280 h2         1 HFD       0.082700
     41 H13          5.5230    -3.5170     0.8210 h5         1 HFD       0.113800
     42 H14          9.4880    -6.5730     1.8430 hn         1 HFD       0.416800
     43 H15         10.5720    -6.6920     0.4960 hn         1 HFD       0.416800
@<TRIPOS>BOND
     1     7     5 1
     2     6     5 1
     3     5     4 1
     4     5     8 1
     5     4     2 1
     6     8     9 1
     7     1     2 1
     8     2    13 1
     9     2     3 1
    10    12     9 1
    11    16    17 1
    12    16    15 1
    13    16    18 1
    14    19    18 1
    15    14    13 1
    16    14    15 1
    17     9    11 1
    18     9    10 1
    19    15    21 1
    20    18    20 1
    21    21    20 1
    22    20    22 1
    23    26    22 1
    24    26    25 2
    25    22    23 1
    26    25    24 1
    27    23    24 ar
    28    23    27 ar
    29    24    31 ar
    30    27    28 ar
    31    31    30 ar
    32    31    32 1
    33    28    30 ar
    34    28    29 1
    35    14    33 1
    36    14    34 1
    37    15    35 1
    38    16    36 1
    39    17    37 1
    40    18    38 1
    41    19    39 1
    42    20    40 1
    43    26    41 1
    44    32    42 1
    45    32    43 1
@<TRIPOS>SUBSTRUCTURE
     1 HFD         1 TEMP              0 ****  ****    0 ROOT
