@<TRIPOS>MOLECULE
molecule
   41    43     1     0     0
SMALL
bcc


@<TRIPOS>ATOM
      1 O4'          0.0000     0.0000     0.0000 o          1 HFG      -0.474100
      2 C21          1.2080     0.0000     0.0000 c          1 HFG       0.541100
      3 C3'          1.9610     0.0000     1.3050 c3         1 HFG      -0.170400
      4 C2'          0.9660    -0.0010     2.4680 c3         1 HFG       0.180500
      5 N1'          0.2020    -1.2540     2.4580 n7         1 HFG      -0.788200
      6 C6'         -0.7950    -1.2780     3.5370 c3         1 HFG       0.156800
      7 C5'         -0.0870    -1.1890     4.8900 c3         1 HFG      -0.125400
      8 C4'          0.7300     0.1040     4.9510 c3         1 HFG      -0.104400
      9 C39          1.7270     0.1250     3.7900 c3         1 HFG       0.108100
     10 O7'          2.4540     1.3540     3.8070 oh         1 HFG      -0.605800
     11 C1'          1.9610    -0.0060    -1.3040 c3         1 HFG      -0.011000
     12 N3           1.0100    -0.0110    -2.4190 n          1 HFG      -0.372300
     13 C4           0.5700    -1.1890    -2.9190 c          1 HFG       0.715100
     14 O11          0.9490    -2.2520    -2.4620 o          1 HFG      -0.615500
     15 C10         -0.3840    -1.1360    -4.0360 ca         1 HFG      -0.186600
     16 C5          -0.8970    -2.2910    -4.6240 ca         1 HFG      -0.043000
     17 C2           0.5730     1.1670    -2.9360 cc         1 HFG       0.523800
     18 N1          -0.2680     1.2450    -3.9210 nd         1 HFG      -0.644100
     19 C9          -0.7770     0.1350    -4.5130 ca         1 HFG       0.198400
     20 C8          -1.6820     0.2190    -5.5720 ca         1 HFG      -0.089000
     21 C7          -2.1780    -0.9330    -6.1390 ca         1 HFG       0.015100
     22 Br1         -3.4030    -0.8160    -7.5750 br         1 HFG      -0.062100
     23 C6          -1.7890    -2.1830    -5.6690 ca         1 HFG       0.015400
     24 Cl1         -2.4310    -3.6190    -6.4040 cl         1 HFG      -0.078400
     25 H1           2.5840    -0.8840     1.3630 hc         1 HFG       0.072200
     26 H2           2.5830     0.8850     1.3630 hc         1 HFG       0.072200
     27 H3           0.2850     0.8350     2.3660 h1         1 HFG       0.091700
     28 H4           0.8280    -2.0280     2.5660 hn         1 HFG       0.347800
     29 H6          -1.4650    -0.4330     3.4250 h1         1 HFG       0.062200
     30 H7          -1.3590    -2.2010     3.4850 h1         1 HFG       0.062200
     31 H8          -0.8250    -1.1880     5.6830 hc         1 HFG       0.046200
     32 H9           0.5750    -2.0390     5.0060 hc         1 HFG       0.046200
     33 H10          1.2680     0.1470     5.8900 hc         1 HFG       0.053200
     34 H11          0.0640     0.9550     4.8710 hc         1 HFG       0.053200
     35 H12          2.4130    -0.7080     3.8910 h1         1 HFG       0.028700
     36 H13          3.2200     1.2590     4.3480 ho         1 HFG       0.403000
     37 H14          2.5840     0.8780    -1.3660 h1         1 HFG       0.088700
     38 H15          2.5840    -0.8910    -1.3580 h1         1 HFG       0.088700
     39 H16         -0.5970    -3.2670    -4.2610 ha         1 HFG       0.173000
     40 H17          0.9470     2.0880    -2.5040 h5         1 HFG       0.058800
     41 H18         -2.0670     1.1840    -5.8800 ha         1 HFG       0.169000
@<TRIPOS>BOND
     1    24    23 1
     2    23    16 ar
     3    23    21 ar
     4    22    21 1
     5    16    15 ar
     6    21    20 ar
     7    14    13 2
     8    15    13 1
     9    15    19 ar
    10    20    19 ar
    11    13    12 1
    12    19    18 1
    13     5     6 1
    14     5     4 1
    15     6     7 1
    16     1     2 2
    17    12    11 1
    18    12    17 1
    19    18    17 2
    20     2     3 1
    21     2    11 1
    22     3     4 1
    23     4     9 1
    24     7     8 1
    25     9     8 1
    26     9    10 1
    27     3    25 1
    28     3    26 1
    29     4    27 1
    30     5    28 1
    31     6    29 1
    32     6    30 1
    33     7    31 1
    34     7    32 1
    35     8    33 1
    36     8    34 1
    37     9    35 1
    38    10    36 1
    39    11    37 1
    40    11    38 1
    41    16    39 1
    42    17    40 1
    43    20    41 1
@<TRIPOS>SUBSTRUCTURE
     1 HFG         1 TEMP              0 ****  ****    0 ROOT
