@<TRIPOS>MOLECULE
HFL
   27    27     1     0     0
SMALL
bcc


@<TRIPOS>ATOM
      1 C1          0.0660    0.1850   -0.0180 ca        1 HFL      0.093100
      2 C2          1.4460   -0.1180    0.0730 ca        1 HFL      0.123100
      3 C3          2.0620   -0.2130    1.3220 ca        1 HFL     -0.189000
      4 C4          1.3260   -0.0030    2.5000 ca        1 HFL     -0.032800
      5 C5         -0.0370    0.2940    2.4210 ca        1 HFL     -0.185000
      6 C6         -0.6570    0.3860    1.1710 ca        1 HFL      0.060100
      7 O7         -0.4940    0.2670   -1.2680 oh        1 HFL     -0.470100
      8 O8         -1.9990    0.6750    1.0160 oh        1 HFL     -0.515100
      9 O9          2.0850   -0.3010   -1.1360 os        1 HFL     -0.300900
     10 C10         2.0150   -0.1120    3.7770 ce        1 HFL     -0.063200
     11 C11         1.5630    0.3780    4.9360 c2        1 HFL     -0.214200
     12 C12         2.3230    0.2850    6.2220 c3        1 HFL      0.368100
     13 O13         1.5060    0.0100    7.3370 oh        1 HFL     -0.631300
     14 O14         3.2390   -0.7900    6.1690 oh        1 HFL     -0.631300
     15 C15         3.4710   -0.6190   -1.0680 c3        1 HFL      0.109700
     16 H3          3.1340   -0.4520    1.3950 ha        1 HFL      0.145000
     17 H5         -0.6300    0.4490    3.3340 ha        1 HFL      0.138000
     18 H7         -1.4360    0.4730   -1.1540 ho        1 HFL      0.433000
     19 H8         -2.3830    0.7760    1.8980 ho        1 HFL      0.431000
     20 H10         2.9850   -0.6440    3.7470 ha        1 HFL      0.147000
     21 H11         0.6090    0.9190    5.0350 ha        1 HFL      0.137000
     22 H12         2.8350    1.2620    6.4630 h2        1 HFL      0.076700
     23 H13         0.9980   -0.7890    7.1480 ho        1 HFL      0.417500
     24 H14         3.6900   -0.8210    7.0220 ho        1 HFL      0.417500
     25 H151        3.6310   -1.5810   -0.5220 h1        1 HFL      0.045700
     26 H152        3.7620   -0.7230   -2.1440 h1        1 HFL      0.045700
     27 H153        4.0440    0.2080   -0.5830 h1        1 HFL      0.045700
@<TRIPOS>BOND
     1    1    2 ar  
     2    1    6 ar  
     3    1    7 1   
     4    2    3 ar  
     5    2    9 1   
     6    3    4 ar  
     7    3   16 1   
     8    4    5 ar  
     9    4   10 1   
    10    5    6 ar  
    11    5   17 1   
    12    6    8 1   
    13    7   18 1   
    14    8   19 1   
    15    9   15 1   
    16   10   11 2   
    17   10   20 1   
    18   11   12 1   
    19   11   21 1   
    20   12   13 1   
    21   12   14 1   
    22   12   22 1   
    23   13   23 1   
    24   14   24 1   
    25   15   25 1   
    26   15   26 1   
    27   15   27 1   
@<TRIPOS>SUBSTRUCTURE
     1 HFL         1 TEMP              0 ****  ****    0 ROOT
