@<TRIPOS>MOLECULE
molecule
   27    27     1     0     0
SMALL
bcc


@<TRIPOS>ATOM
      1 C1           0.0000     0.0000     0.0000 ca         1 HFL       0.063100
      2 C2           1.3900     0.0000     0.0000 ca         1 HFL       0.112100
      3 C3           2.0820     0.0000     1.1980 ca         1 HFL      -0.214000
      4 C4           1.3840    -0.0060     2.4060 ca         1 HFL      -0.015800
      5 C5          -0.0100    -0.0120     2.4030 ca         1 HFL      -0.176000
      6 C6          -0.6980    -0.0110     1.2030 ca         1 HFL       0.112100
      7 O7          -0.6790     0.0010    -1.1790 oh         1 HFL      -0.500100
      8 O8          -2.0580    -0.0170     1.1990 oh         1 HFL      -0.514100
      9 O9           2.0700     0.0050    -1.1770 os         1 HFL      -0.279900
     10 C10          2.1210    -0.0060     3.6860 ce         1 HFL      -0.106200
     11 C11          1.4580    -0.0110     4.8340 c2         1 HFL      -0.137200
     12 C12          2.2080    -0.0120     6.1400 c3         1 HFL       0.378100
     13 O13          1.8580     1.1510     6.8920 oh         1 HFL      -0.604300
     14 O14          1.8680    -1.1810     6.8860 oh         1 HFL      -0.604300
     15 C15          3.4610     0.0090    -0.8510 c3         1 HFL       0.101700
     16 H3           3.1660     0.0020     1.1990 ha         1 HFL       0.148000
     17 H5          -0.5550    -0.0190     3.3390 ha         1 HFL       0.150000
     18 H7          -0.9680     0.8770    -1.3750 ho         1 HFL       0.424000
     19 H8          -2.3690    -0.8850     1.3960 ho         1 HFL       0.429000
     20 H10          3.2050    -0.0030     3.6870 ha         1 HFL       0.127000
     21 H11          0.3740    -0.0150     4.8330 ha         1 HFL       0.154000
     22 H12          3.2740    -0.0070     5.9430 h2         1 HFL       0.013700
     23 H13          2.6040     1.4390     7.3920 ho         1 HFL       0.402000
     24 H14          2.6160    -1.4640     7.3850 ho         1 HFL       0.402000
     25 H151         3.6990    -0.8760    -0.2740 h1         1 HFL       0.045033
     26 H152         4.0450     0.0130    -1.7640 h1         1 HFL       0.045033
     27 H153         3.6930     0.8930    -0.2700 h1         1 HFL       0.045033
@<TRIPOS>BOND
     1     1     2 ar
     2     1     6 ar
     3     1     7 1
     4     2     3 ar
     5     2     9 1
     6     3     4 ar
     7     3    16 1
     8     4     5 ar
     9     4    10 1
    10     5     6 ar
    11     5    17 1
    12     6     8 1
    13     7    18 1
    14     8    19 1
    15     9    15 1
    16    10    11 2
    17    10    20 1
    18    11    12 1
    19    11    21 1
    20    12    13 1
    21    12    14 1
    22    12    22 1
    23    13    23 1
    24    14    24 1
    25    15    25 1
    26    15    26 1
    27    15    27 1
@<TRIPOS>SUBSTRUCTURE
     1 HFL         1 TEMP              0 ****  ****    0 ROOT
