@<TRIPOS>MOLECULE
HFN
   48    51     1     0     0
SMALL
bcc


@<TRIPOS>ATOM
      1 N1           0.0000     0.0000     0.0000 na         1 HFN       0.494400
      2 N3           1.8250    -2.1770     6.3530 ns         1 HFN      -0.018100
      3 C4           1.2720    -1.0940     4.2620 ca         1 HFN      -0.104000
      4 C5           0.7470     0.0010     3.5760 ca         1 HFN       0.017000
      5 C6           0.2530     1.0940     4.2850 ca         1 HFN      -0.085000
      6 C7           0.2830     1.0960     5.6650 ca         1 HFN      -0.101000
      7 C8           1.3000    -1.0880     5.6440 ca         1 HFN      -0.155400
      8 C10          0.6730    -1.2710     8.3460 c3         1 HFN       0.149400
      9 C13         -2.2190    -0.8510     2.7960 ca         1 HFN      -0.067500
     10 C15         -4.4510     0.0080     2.6430 ca         1 HFN       0.110900
     11 C17         -2.7590     0.8550     1.1740 ca         1 HFN      -0.067500
     12 C21         -2.0600    -1.4290    -2.8430 c3         1 HFN       0.181400
     13 F3          -1.8120    -2.0980    -0.5590 f          1 HFN      -0.207800
     14 F2           0.0370    -2.0940    -1.9000 f          1 HFN      -0.207800
     15 O3          -1.3950    -0.7520    -3.9110 oh         1 HFN      -0.578800
     16 C19         -0.8600     0.0060    -1.1860 c3         1 HFN      -0.072700
     17 N2           1.4000     0.0000     0.0000 nc         1 HFN      -0.626800
     18 C3           1.8270     0.0000     1.2340 cd         1 HFN       0.383600
     19 C18          3.2710    -0.0010     1.6660 c3         1 HFN      -0.006400
     20 C1           0.7140     0.0010     2.0930 cd         1 HFN      -0.250300
     21 C2          -0.4230     0.0010     1.2960 cc         1 HFN      -0.159300
     22 C12         -1.8250     0.0020     1.7630 ca         1 HFN      -0.021000
     23 C16         -4.0630     0.8600     1.6210 ca         1 HFN      -0.128000
     24 C14         -3.5290    -0.8460     3.2280 ca         1 HFN      -0.128000
     25 C9           0.8030     0.0100     6.3490 ca         1 HFN       0.102100
     26 O1           0.8330    -0.0000     7.7090 os         1 HFN      -0.301900
     27 C11          1.5560    -2.2900     7.6730 c          1 HFN       0.564500
     28 O2           2.0200    -3.2110     8.3120 o          1 HFN      -0.657500
     29 H1           2.5230    -2.7580     5.9330 hn         1 HFN       0.184500
     30 H2           1.6570    -1.9460     3.7140 ha         1 HFN       0.120000
     31 H3          -0.1550     1.9450     3.7520 ha         1 HFN       0.114000
     32 H4          -0.1020     1.9470     6.2140 ha         1 HFN       0.119000
     33 H5           0.9520    -1.1870     9.3890 h1         1 HFN       0.038700
     34 H6          -0.3610    -1.5840     8.2680 h1         1 HFN       0.038700
     35 H7          -1.4990    -1.5170     3.2550 ha         1 HFN       0.117500
     36 H8          -2.4570     1.5200     0.3730 ha         1 HFN       0.117500
     37 H9          -2.9910    -0.9230    -2.6190 h1         1 HFN       0.013200
     38 H10         -2.2660    -2.4520    -3.1360 h1         1 HFN       0.013200
     39 H11         -1.8470    -0.9210    -4.7200 ho         1 HFN       0.407000
     40 H12         -0.3560     0.5200    -1.9960 h1         1 HFN       0.073200
     41 H13         -1.7880     0.5170    -0.9570 h1         1 HFN       0.073200
     42 H14          3.9000     0.2640     0.8240 hc         1 HFN       0.013700
     43 H15          3.5410    -0.9880     2.0220 hc         1 HFN       0.013700
     44 H16          3.4110     0.7210     2.4620 hc         1 HFN       0.013700
     45 H17         -4.7890     1.5220     1.1650 ha         1 HFN       0.121000
     46 H18         -3.8370    -1.5080     4.0280 ha         1 HFN       0.121000
     47 F1          -5.7320     0.0080     3.0700 f          1 HFN      -0.125900
     48 C20         -1.1610    -1.4350    -1.6050 c3         1 HFN       0.357600
@<TRIPOS>BOND
     1     1    16 1   
     2     1    17 1   
     3     1    21 1   
     4     2     7 1   
     5     2    27 1   
     6     2    29 1   
     7     3     4 ar  
     8     3     7 ar  
     9     3    30 1   
    10     4     5 ar  
    11     4    20 1   
    12     5     6 ar  
    13     5    31 1   
    14     6    25 ar  
    15     6    32 1   
    16     7    25 ar  
    17     8    26 1   
    18     8    27 1   
    19     8    33 1   
    20     8    34 1   
    21     9    22 ar  
    22     9    24 ar  
    23     9    35 1   
    24    10    23 ar  
    25    10    24 ar  
    26    10    47 1   
    27    11    22 ar  
    28    11    23 ar  
    29    11    36 1   
    30    12    15 1   
    31    12    37 1   
    32    12    38 1   
    33    12    48 1   
    34    13    48 1   
    35    14    48 1   
    36    15    39 1   
    37    16    40 1   
    38    16    41 1   
    39    16    48 1   
    40    17    18 2   
    41    18    19 1   
    42    18    20 1   
    43    19    42 1   
    44    19    43 1   
    45    19    44 1   
    46    20    21 2   
    47    21    22 1   
    48    23    45 1   
    49    24    46 1   
    50    25    26 1   
    51    27    28 2   
@<TRIPOS>SUBSTRUCTURE
     1 HFN         1 TEMP              0 ****  ****    0 ROOT
