@<TRIPOS>MOLECULE
molecule
   51    50     1     0     0
SMALL
bcc


@<TRIPOS>ATOM
      1 P            0.0000     0.0000     0.0000 p5         1 HFP       1.030700
      2 O1P         -0.4930    -0.0020    -1.3950 o          1 HFP      -0.909167
      3 O2P         -0.5360    -1.3140     0.7590 o          1 HFP      -0.909167
      4 O3P         -0.5370     1.3140     0.7580 o          1 HFP      -0.909167
      5 C1           1.8230     0.0000     0.0000 c3         1 HFP      -0.013100
      6 O1           2.2990     0.0000     1.3470 oh         1 HFP      -0.635800
      7 C2           2.3330     1.2480    -0.7220 c3         1 HFP      -0.037400
      8 C3           3.8580     1.1870    -0.8310 c3         1 HFP      -0.077700
      9 C4           4.3800     2.5000    -1.4200 c3         1 HFP      -0.089100
     10 C5           4.2590     0.0250    -1.7410 c3         1 HFP      -0.072400
     11 C6           5.7820    -0.0350    -1.8500 c3         1 HFP      -0.087400
     12 C7           6.1840    -1.1980    -2.7590 c3         1 HFP      -0.077400
     13 C8           7.7080    -1.2590    -2.8690 c3         1 HFP      -0.074700
     14 C9           8.2300     0.0530    -3.4560 c3         1 HFP      -0.090100
     15 C10          8.1090    -2.4210    -3.7780 c3         1 HFP      -0.077400
     16 C11          9.6340    -2.4810    -3.8880 c3         1 HFP      -0.086400
     17 C12         10.0340    -3.6440    -4.7970 c3         1 HFP      -0.077400
     18 C13         11.5590    -3.7050    -4.9070 c3         1 HFP      -0.077700
     19 C14         11.9600    -4.8670    -5.8170 c3         1 HFP      -0.087100
     20 C15         12.0810    -2.3930    -5.4950 c3         1 HFP      -0.087100
     21 H1           2.1840    -0.8850    -0.5100 h1         1 HFP      -0.006300
     22 HO1          2.0670    -0.8140     1.7630 ho         1 HFP       0.390000
     23 H21          1.9020     1.2930    -1.7150 hc         1 HFP       0.057700
     24 H22          2.0460     2.1310    -0.1640 hc         1 HFP       0.057700
     25 H3           4.2840     1.0380     0.1530 hc         1 HFP       0.052700
     26 H41          4.3510     2.4470    -2.5010 hc         1 HFP       0.012700
     27 H42          3.7580     3.3200    -1.0810 hc         1 HFP       0.012700
     28 H43          5.4000     2.6610    -1.0930 hc         1 HFP       0.012700
     29 H51          3.8900    -0.9040    -1.3240 hc         1 HFP       0.051200
     30 H52          3.8320     0.1730    -2.7260 hc         1 HFP       0.051200
     31 H61          6.1510     0.8940    -2.2680 hc         1 HFP       0.031200
     32 H62          6.2090    -0.1830    -0.8650 hc         1 HFP       0.031200
     33 H71          5.7560    -1.0500    -3.7440 hc         1 HFP       0.042200
     34 H72          5.8150    -2.1270    -2.3410 hc         1 HFP       0.042200
     35 H8           8.1350    -1.4080    -1.8850 hc         1 HFP       0.045700
     36 H91          7.7870     0.2140    -4.4320 hc         1 HFP       0.030033
     37 H92          9.3080     0.0020    -3.5540 hc         1 HFP       0.030033
     38 H93          7.9650     0.8730    -2.8000 hc         1 HFP       0.030033
     39 H101         7.6810    -2.2740    -4.7620 hc         1 HFP       0.040700
     40 H102         7.7400    -3.3500    -3.3600 hc         1 HFP       0.040700
     41 H111        10.0610    -2.6290    -2.9040 hc         1 HFP       0.040700
     42 H112        10.0020    -1.5520    -4.3070 hc         1 HFP       0.040700
     43 H121         9.6080    -3.4960    -5.7820 hc         1 HFP       0.040700
     44 H122         9.6650    -4.5720    -4.3790 hc         1 HFP       0.040700
     45 H13         11.9860    -3.8540    -3.9220 hc         1 HFP       0.046700
     46 H141        11.5530    -5.7910    -5.4230 hc         1 HFP       0.030033
     47 H142        13.0410    -4.9380    -5.8580 hc         1 HFP       0.030033
     48 H143        11.5720    -4.6960    -6.8130 hc         1 HFP       0.030033
     49 H151        11.3710    -2.0140    -6.2200 hc         1 HFP       0.030033
     50 H152        13.0340    -2.5690    -5.9800 hc         1 HFP       0.030033
     51 H153        12.2090    -1.6670    -4.7010 hc         1 HFP       0.030033
@<TRIPOS>BOND
     1     1     2 1
     2     1     3 1
     3     1     4 1
     4     1     5 1
     5     5     6 1
     6     5     7 1
     7     5    21 1
     8     6    22 1
     9     7     8 1
    10     7    23 1
    11     7    24 1
    12     8     9 1
    13     8    10 1
    14     8    25 1
    15     9    26 1
    16     9    27 1
    17     9    28 1
    18    10    11 1
    19    10    29 1
    20    10    30 1
    21    11    12 1
    22    11    31 1
    23    11    32 1
    24    12    13 1
    25    12    33 1
    26    12    34 1
    27    13    14 1
    28    13    15 1
    29    13    35 1
    30    14    36 1
    31    14    37 1
    32    14    38 1
    33    15    16 1
    34    15    39 1
    35    15    40 1
    36    16    17 1
    37    16    41 1
    38    16    42 1
    39    17    18 1
    40    17    43 1
    41    17    44 1
    42    18    19 1
    43    18    20 1
    44    18    45 1
    45    19    46 1
    46    19    47 1
    47    19    48 1
    48    20    49 1
    49    20    50 1
    50    20    51 1
@<TRIPOS>SUBSTRUCTURE
     1 HFP         1 TEMP              0 ****  ****    0 ROOT
