@<TRIPOS>MOLECULE
HFP
   51    50     1     0     0
SMALL
bcc


@<TRIPOS>ATOM
      1 P           0.2050   -0.7000    0.1220 p5        1 HFP      1.196700
      2 O1P        -0.0460   -2.1590   -0.1740 o         1 HFP     -0.943833
      3 O2P        -0.0560   -0.2770    1.5570 o         1 HFP     -0.943833
      4 O3P        -0.3350    0.2500   -0.9230 o         1 HFP     -0.943833
      5 C1          2.0100   -0.5460    0.0390 c3        1 HFP     -0.049100
      6 O1          2.5520   -0.6320    1.3410 oh        1 HFP     -0.675800
      7 C2          2.2820    0.7920   -0.5870 c3        1 HFP     -0.074400
      8 C3          3.7600    1.1090   -0.7970 c3        1 HFP     -0.070700
      9 C4          3.9710    2.6020   -0.9350 c3        1 HFP     -0.076100
     10 C5          4.2940    0.3700   -2.0160 c3        1 HFP     -0.072400
     11 C6          5.8050    0.2570   -2.0140 c3        1 HFP     -0.077400
     12 C7          6.2960   -0.5080   -3.2250 c3        1 HFP     -0.077400
     13 C8          7.8080   -0.7000   -3.2250 c3        1 HFP     -0.066700
     14 C9          8.5160    0.5900   -3.5830 c3        1 HFP     -0.085100
     15 C10         8.1890   -1.8170   -4.1880 c3        1 HFP     -0.077400
     16 C11         9.6190   -2.2800   -4.0040 c3        1 HFP     -0.078400
     17 C12         9.9320   -3.4500   -4.9130 c3        1 HFP     -0.076400
     18 C13        11.3600   -3.9510   -4.7450 c3        1 HFP     -0.068700
     19 C14        11.4940   -5.3500   -5.3120 c3        1 HFP     -0.088100
     20 C15        12.3540   -3.0220   -5.4100 c3        1 HFP     -0.088100
     21 H1          2.4550   -1.3840   -0.5460 h1        1 HFP      0.023700
     22 HO1         1.8070   -0.4710    1.9540 ho        1 HFP      0.427000
     23 H21         1.8260    1.5670    0.0850 hc        1 HFP      0.058700
     24 H22         1.7220    0.8310   -1.5590 hc        1 HFP      0.058700
     25 H3          4.3140    0.7460    0.1160 hc        1 HFP      0.049700
     26 H41         3.3830    3.0000   -1.7970 hc        1 HFP      0.006700
     27 H42         3.6270    3.1220   -0.0080 hc        1 HFP      0.006700
     28 H43         5.0490    2.8490   -1.0980 hc        1 HFP      0.006700
     29 H51         3.8460   -0.6600   -2.0260 hc        1 HFP      0.043700
     30 H52         3.9580    0.8910   -2.9500 hc        1 HFP      0.043700
     31 H61         6.2640    1.2800   -1.9990 hc        1 HFP      0.028200
     32 H62         6.1360   -0.2680   -1.0790 hc        1 HFP      0.028200
     33 H71         5.9900    0.0290   -4.1610 hc        1 HFP      0.038700
     34 H72         5.7940   -1.5120   -3.2400 hc        1 HFP      0.038700
     35 H8          8.1240   -1.0050   -2.1870 hc        1 HFP      0.048700
     36 H91         8.2020    1.4070   -2.8890 hc        1 HFP      0.025700
     37 H92         9.6230    0.4680   -3.5060 hc        1 HFP      0.025700
     38 H93         8.2660    0.8990   -4.6270 hc        1 HFP      0.025700
     39 H101        8.0380   -1.4680   -5.2420 hc        1 HFP      0.039200
     40 H102        7.5010   -2.6900   -4.0250 hc        1 HFP      0.039200
     41 H111       10.3230   -1.4350   -4.2210 hc        1 HFP      0.036700
     42 H112        9.7810   -2.5810   -2.9350 hc        1 HFP      0.036700
     43 H121        9.2200   -4.2880   -4.6870 hc        1 HFP      0.039700
     44 H122        9.7640   -3.1530   -5.9820 hc        1 HFP      0.039700
     45 H13        11.5940   -3.9920   -3.6430 hc        1 HFP      0.047700
     46 H141       12.5430   -5.7150   -5.2030 hc        1 HFP      0.028867
     47 H142       11.2260   -5.3600   -6.3960 hc        1 HFP      0.028867
     48 H143       10.8150   -6.0550   -4.7740 hc        1 HFP      0.028867
     49 H151       13.3950   -3.3970   -5.2600 hc        1 HFP      0.028867
     50 H152       12.2800   -1.9960   -4.9770 hc        1 HFP      0.028867
     51 H153       12.1570   -2.9580   -6.5070 hc        1 HFP      0.028867
@<TRIPOS>BOND
     1    1    2 1   
     2    1    3 1   
     3    1    4 1   
     4    1    5 1   
     5    5    6 1   
     6    5    7 1   
     7    5   21 1   
     8    6   22 1   
     9    7    8 1   
    10    7   23 1   
    11    7   24 1   
    12    8    9 1   
    13    8   10 1   
    14    8   25 1   
    15    9   26 1   
    16    9   27 1   
    17    9   28 1   
    18   10   11 1   
    19   10   29 1   
    20   10   30 1   
    21   11   12 1   
    22   11   31 1   
    23   11   32 1   
    24   12   13 1   
    25   12   33 1   
    26   12   34 1   
    27   13   14 1   
    28   13   15 1   
    29   13   35 1   
    30   14   36 1   
    31   14   37 1   
    32   14   38 1   
    33   15   16 1   
    34   15   39 1   
    35   15   40 1   
    36   16   17 1   
    37   16   41 1   
    38   16   42 1   
    39   17   18 1   
    40   17   43 1   
    41   17   44 1   
    42   18   19 1   
    43   18   20 1   
    44   18   45 1   
    45   19   46 1   
    46   19   47 1   
    47   19   48 1   
    48   20   49 1   
    49   20   50 1   
    50   20   51 1   
@<TRIPOS>SUBSTRUCTURE
     1 HFP         1 TEMP              0 ****  ****    0 ROOT
