@<TRIPOS>MOLECULE
molecule
   31    31     1     0     0
SMALL
bcc


@<TRIPOS>ATOM
      1 F1           0.0000     0.0000     0.0000 f          1 HFT      -0.209967
      2 C7           1.3990     0.0000     0.0000 c3         1 HFT       0.682200
      3 F2           1.8660     0.0000     1.3190 f          1 HFT      -0.209967
      4 F3           1.8650     1.1430    -0.6600 f          1 HFT      -0.209967
      5 C3           1.9020    -1.2300    -0.7110 ca         1 HFT      -0.105300
      6 C2           1.0040    -2.1360    -1.2400 ca         1 HFT      -0.135000
      7 C4           3.2610    -1.4470    -0.8380 ca         1 HFT      -0.139200
      8 N1           4.2210    -0.4720    -0.2740 no         1 HFT       0.291200
      9 O2           5.4190    -0.6630    -0.3850 o          1 HFT      -0.191500
     10 O1           3.8130     0.5220     0.2990 o          1 HFT      -0.191500
     11 C5           3.7260    -2.5750    -1.4890 ca         1 HFT      -0.052000
     12 C6           2.8330    -3.4880    -2.0150 ca         1 HFT      -0.115000
     13 C1           1.4670    -3.2720    -1.8890 ca         1 HFT       0.102600
     14 N9           0.5590    -4.1950    -2.4220 ns         1 HFT      -0.483100
     15 C10          0.8300    -5.5140    -2.3670 c          1 HFT       0.670100
     16 O10          1.8090    -5.9080    -1.7690 o          1 HFT      -0.543100
     17 C11         -0.0830    -6.4990    -3.0500 c3         1 HFT       0.083800
     18 C12         -0.1350    -6.1940    -4.5480 c3         1 HFT      -0.123100
     19 C13         -1.4890    -6.3860    -2.4570 c3         1 HFT      -0.123100
     20 O11          0.4120    -7.8250    -2.8500 oh         1 HFT      -0.566800
     21 H2          -0.0610    -1.9650    -1.1410 ha         1 HFT       0.164000
     22 H5           4.7920    -2.7430    -1.5870 ha         1 HFT       0.178000
     23 H6           3.1980    -4.3720    -2.5230 ha         1 HFT       0.179000
     24 HN9         -0.3380    -3.8850    -2.7390 hn         1 HFT       0.332500
     25 H121         0.8740    -6.0900    -4.9300 hc         1 HFT       0.050367
     26 H122        -0.6800    -5.2720    -4.7110 hc         1 HFT       0.050367
     27 H123        -0.6340    -7.0050    -5.0650 hc         1 HFT       0.050367
     28 H131        -2.0980    -7.2080    -2.8140 hc         1 HFT       0.050367
     29 H132        -1.4300    -6.4230    -1.3760 hc         1 HFT       0.050367
     30 H133        -1.9350    -5.4480    -2.7630 hc         1 HFT       0.050367
     31 H11         -0.1660    -8.4430    -3.2660 ho         1 HFT       0.412000
@<TRIPOS>BOND
     1     1     2 1
     2     2     3 1
     3     2     4 1
     4     2     5 1
     5     5     6 ar
     6     5     7 ar
     7     6    13 ar
     8     6    21 1
     9     7     8 1
    10     7    11 ar
    11     8     9 1
    12     8    10 1
    13    11    12 ar
    14    11    22 1
    15    12    13 ar
    16    12    23 1
    17    13    14 1
    18    14    15 1
    19    14    24 1
    20    15    16 2
    21    15    17 1
    22    17    18 1
    23    17    19 1
    24    17    20 1
    25    18    25 1
    26    18    26 1
    27    18    27 1
    28    19    28 1
    29    19    29 1
    30    19    30 1
    31    20    31 1
@<TRIPOS>SUBSTRUCTURE
     1 HFT         1 TEMP              0 ****  ****    0 ROOT
