@<TRIPOS>MOLECULE
HFV
   48    47     1     0     0
SMALL
bcc


@<TRIPOS>ATOM
      1 O20          0.0000     0.0000     0.0000 o          1 HFV      -0.827300
      2 C1           1.2090     0.0000     0.0000 c          1 HFV       0.959600
      3 O19          1.8800    -0.0010    -1.1620 o          1 HFV      -0.827300
      4 C2           1.9620     0.0000     1.3050 c3         1 HFV      -0.198500
      5 N14          1.0800     0.4740     2.3810 nz         1 HFV       0.081400
      6 C3           2.4340    -1.4210     1.6220 c3         1 HFV      -0.027400
      7 C4           3.3040    -1.4010     2.8800 c3         1 HFV      -0.033400
      8 C7           3.7750    -2.8230     3.1970 c3         1 HFV      -0.088400
      9 C10          4.6320    -2.8020     4.4360 c          1 HFV       0.562100
     10 O15          4.8450    -1.7560     5.0100 o          1 HFV      -0.638100
     11 N11          5.1620    -3.9490     4.9070 ns         1 HFV      -0.162900
     12 C12          5.9950    -3.9300     6.1120 c3         1 HFV      -0.035300
     13 C16          5.1010    -4.0060     7.3510 c3         1 HFV       0.094700
     14 S17          3.9740    -2.5840     7.3730 sh         1 HFV      -0.401900
     15 C13          6.9300    -5.1110     6.0940 c          1 HFV       0.564100
     16 O18          6.9040    -5.8920     5.1670 o          1 HFV      -0.669100
     17 N29          7.7970    -5.3000     7.1100 ns         1 HFV      -0.148900
     18 C30          8.7060    -6.4480     7.0930 c3         1 HFV      -0.110300
     19 C31          8.4400    -7.3180     8.2940 c          1 HFV       0.962600
     20 O42          8.9860    -8.5420     8.3710 o          1 HFV      -0.861300
     21 O43          7.7360    -6.9130     9.1890 o          1 HFV      -0.861300
     22 C32         10.1530    -5.9540     7.1320 c3         1 HFV      -0.163700
     23 C37         10.4130    -5.0420     5.9300 c3         1 HFV       0.581900
     24 F24          9.5440    -3.9470     5.9800 f          1 HFV      -0.203800
     25 F25         11.7370    -4.5890     5.9660 f          1 HFV      -0.203800
     26 F26         10.1960    -5.7560     4.7480 f          1 HFV      -0.203800
     27 C33         10.3900    -5.1720     8.4260 c3         1 HFV       0.581900
     28 F21         10.0400    -5.9670     9.5220 f          1 HFV      -0.203800
     29 F23         11.7410    -4.8200     8.5170 f          1 HFV      -0.203800
     30 F22          9.6060    -4.0140     8.4210 f          1 HFV      -0.203800
     31 H2           2.8210     0.6560     1.2260 hx         1 HFV       0.088700
     32 H141         0.5580     1.2650     2.0600 hn         1 HFV       0.211800
     33 H142         1.6320     0.7380     3.1730 hn         1 HFV       0.211800
     34 H3C1         3.0120    -1.8040     0.7890 hc         1 HFV       0.050700
     35 H3C2         1.5740    -2.0590     1.7880 hc         1 HFV       0.050700
     36 H4C1         4.1640    -0.7640     2.7140 hc         1 HFV       0.020200
     37 H4C2         2.7260    -1.0180     3.7130 hc         1 HFV       0.020200
     38 H7C1         4.3530    -3.2050     2.3650 hc         1 HFV       0.034200
     39 H7C2         2.9150    -3.4600     3.3630 hc         1 HFV       0.034200
     40 H11          5.0230    -4.8060     4.4080 hn         1 HFV       0.200500
     41 H12          6.5720    -3.0130     6.1390 h1         1 HFV       0.078700
     42 H161         5.7160    -3.9930     8.2430 h1         1 HFV       0.051200
     43 H162         4.5240    -4.9230     7.3250 h1         1 HFV       0.051200
     44 H17          3.4090    -2.4850     8.5700 hs         1 HFV       0.159800
     45 H29          7.8180    -4.6560     7.8760 hn         1 HFV       0.201500
     46 H30          8.5450    -7.0230     6.1890 h1         1 HFV       0.097700
     47 H32         10.8260    -6.8020     7.0940 hc         1 HFV       0.117700
     48 H143         0.4490    -0.2580     2.6410 hn         1 HFV       0.211800
@<TRIPOS>BOND
     1     1     2 1   
     2     2     3 1   
     3     2     4 1   
     4     4     5 1   
     5     4     6 1   
     6     4    31 1   
     7     5    32 1   
     8     5    33 1   
     9     5    48 1   
    10     6     7 1   
    11     6    34 1   
    12     6    35 1   
    13     7     8 1   
    14     7    36 1   
    15     7    37 1   
    16     8     9 1   
    17     8    38 1   
    18     8    39 1   
    19     9    10 2   
    20     9    11 1   
    21    11    12 1   
    22    11    40 1   
    23    12    13 1   
    24    12    15 1   
    25    12    41 1   
    26    13    14 1   
    27    13    42 1   
    28    13    43 1   
    29    14    44 1   
    30    15    16 2   
    31    15    17 1   
    32    17    18 1   
    33    17    45 1   
    34    18    19 1   
    35    18    22 1   
    36    18    46 1   
    37    19    20 1   
    38    19    21 1   
    39    22    23 1   
    40    22    27 1   
    41    22    47 1   
    42    23    24 1   
    43    23    25 1   
    44    23    26 1   
    45    27    28 1   
    46    27    29 1   
    47    27    30 1   
@<TRIPOS>SUBSTRUCTURE
     1 HFV         1 TEMP              0 ****  ****    0 ROOT
