@<TRIPOS>MOLECULE
HFZ
   29    30     1     0     0
SMALL
bcc


@<TRIPOS>ATOM
      1 N01         0.0760   -0.0990   -0.4450 nz        1 HFZ     -0.786500
      2 S02         1.9200    0.0710    0.0410 sy        1 HFZ      1.493200
      3 O03         1.8130   -0.0220    1.4100 o         1 HFZ     -0.564300
      4 O04         2.4580   -0.9510   -0.7170 o         1 HFZ     -0.564300
      5 C05         2.1870    1.5350   -0.5430 ca        1 HFZ     -0.610500
      6 C06         2.8440    1.6230   -1.7950 ca        1 HFZ      0.162000
      7 C07         3.2790    2.7960   -2.3730 ca        1 HFZ     -0.439500
      8 C08         3.0770    4.0270   -1.6690 ca        1 HFZ      0.378600
      9 C09         2.3620    3.9740   -0.4150 ca        1 HFZ     -0.190000
     10 C10         1.9350    2.7840    0.1040 ca        1 HFZ      0.044700
     11 C11         1.1470    2.8590    1.4360 c3        1 HFZ      0.670200
     12 F12         0.6700    4.1080    1.7310 f         1 HFZ     -0.213300
     13 F13         0.0190    2.0670    1.4330 f         1 HFZ     -0.213300
     14 F14         1.8650    2.4800    2.5340 f         1 HFZ     -0.213300
     15 N15         3.5240    5.2030   -2.1560 nu        1 HFZ     -0.734600
     16 C16         4.2640    5.3030   -3.4260 c3        1 HFZ      0.495000
     17 N17         3.9460    4.2600   -4.3550 n7        1 HFZ     -0.914100
     18 S18         4.0530    2.7020   -3.9140 sy        1 HFZ      1.527200
     19 O19         5.3680    2.3090   -3.6950 o         1 HFZ     -0.617800
     20 O20         3.2510    1.9000   -4.7300 o         1 HFZ     -0.617800
     21 HN01       -0.2520    0.6910   -0.9920 hn        1 HFZ      0.458133
     22 HN0A       -0.4970   -0.1450    0.3990 hn        1 HFZ      0.458133
     23 H06         3.0320    0.6730   -2.3520 ha        1 HFZ      0.186000
     24 H09         2.1590    4.9190    0.1230 ha        1 HFZ      0.185000
     25 HN15        3.3650    6.0510   -1.6540 hn        1 HFZ      0.478800
     26 H16         4.0340    6.3180   -3.8720 h2        1 HFZ      0.101700
     27 H16A        5.3720    5.2550   -3.1640 h2        1 HFZ      0.101700
     28 HN17        3.5440    4.5620   -5.2120 hn        1 HFZ      0.482800
     29 H013       -0.0830   -0.9470   -0.9840 hn        1 HFZ      0.458133
@<TRIPOS>BOND
     1    1    2 1   
     2    1   21 1   
     3    1   22 1   
     4    1   29 1   
     5    2    3 2   
     6    2    4 2   
     7    2    5 1   
     8    5    6 ar  
     9    5   10 ar  
    10    6    7 ar  
    11    6   23 1   
    12    7    8 ar  
    13    7   18 1   
    14    8    9 ar  
    15    8   15 1   
    16    9   10 ar  
    17    9   24 1   
    18   10   11 1   
    19   11   12 1   
    20   11   13 1   
    21   11   14 1   
    22   15   16 1   
    23   15   25 1   
    24   16   17 1   
    25   16   26 1   
    26   16   27 1   
    27   17   18 1   
    28   17   28 1   
    29   18   19 2   
    30   18   20 2   
@<TRIPOS>SUBSTRUCTURE
     1 HFZ         1 TEMP              0 ****  ****    0 ROOT
