@<TRIPOS>MOLECULE
molecule
   61    61     1     0     0
SMALL
bcc


@<TRIPOS>ATOM
      1 CAO          0.0000     0.0000     0.0000 c3         1 HG1      -0.076400
      2 CAJ          1.5300     0.0000     0.0000 c3         1 HG1      -0.079400
      3 CAI          2.0400     0.0000     1.4430 c3         1 HG1      -0.080400
      4 CAK          1.5290     1.2490     2.1650 c3         1 HG1      -0.079400
      5 CAP         -0.0010     1.2480     2.1650 c3         1 HG1      -0.076400
      6 CAU         -0.5100     1.2490     0.7220 c3         1 HG1      -0.067700
      7 CAQ         -2.0400     1.2480     0.7210 c3         1 HG1      -0.081400
      8 CAL         -2.5490     1.3740    -0.7170 c3         1 HG1      -0.069400
      9 CAN         -4.0800     1.3740    -0.7170 c3         1 HG1      -0.158400
     10 CAT         -4.5810     1.4980    -2.1320 c          1 HG1       0.653100
     11 OAA         -3.7920     1.5800    -3.0510 o          1 HG1      -0.571100
     12 NAZ         -5.9060     1.5200    -2.3790 n          1 HG1      -0.489800
     13 CAR         -6.8590     1.4210    -1.2700 c3         1 HG1       0.099000
     14 CAH         -7.1900     2.8240    -0.7570 c3         1 HG1       0.117400
     15 OAB         -7.8730     3.5560    -1.7780 oh         1 HG1      -0.608800
     16 CAS         -6.3940     1.6400    -3.7550 c3         1 HG1       0.101000
     17 CAW         -6.5640     0.2460    -4.3600 c3         1 HG1       0.117100
     18 H25         -7.2780    -0.3190    -3.7730 h1         1 HG1       0.020700
     19 CAY         -7.0720     0.3720    -5.7980 c3         1 HG1       0.145100
     20 OAG         -6.1910     1.2130    -6.5430 oh         1 HG1      -0.569800
     21 CAX         -7.1230    -1.0140    -6.4440 c3         1 HG1       0.147100
     22 OAF         -5.8390    -1.6320    -6.3480 oh         1 HG1      -0.557800
     23 H1          -0.3600     0.0030    -1.0220 hc         1 HG1       0.041950
     24 H2          -0.3600    -0.8840     0.5120 hc         1 HG1       0.041950
     25 H3           1.8910     0.8860    -0.5090 hc         1 HG1       0.040450
     26 H4           1.8900    -0.8860    -0.5080 hc         1 HG1       0.040450
     27 H5           3.1230     0.0030     1.4420 hc         1 HG1       0.038700
     28 H6           1.6760    -0.8840     1.9530 hc         1 HG1       0.038700
     29 H7           1.8890     2.1330     1.6530 hc         1 HG1       0.040450
     30 H8           1.8890     1.2460     3.1870 hc         1 HG1       0.040450
     31 H9          -0.3600     0.3620     2.6730 hc         1 HG1       0.041950
     32 H10         -0.3610     2.1340     2.6740 hc         1 HG1       0.041950
     33 H11         -0.1450     2.1320     0.2120 hc         1 HG1       0.054700
     34 H12         -2.4020     2.0850     1.3070 hc         1 HG1       0.037200
     35 H13         -2.4010     0.3220     1.1520 hc         1 HG1       0.037200
     36 H14         -2.1880     2.3000    -1.1480 hc         1 HG1       0.062200
     37 H15         -2.1880     0.5380    -1.3030 hc         1 HG1       0.062200
     38 H16         -4.4410     2.2110    -0.1310 hc         1 HG1       0.052700
     39 H17         -4.4410     0.4490    -0.2860 hc         1 HG1       0.052700
     40 H18         -7.7660     0.9390    -1.6150 h1         1 HG1       0.055700
     41 H19         -6.4220     0.8380    -0.4690 h1         1 HG1       0.055700
     42 H20         -7.8250     2.7480     0.1180 h1         1 HG1       0.029200
     43 H21         -6.2740     3.3390    -0.4960 h1         1 HG1       0.029200
     44 H22         -8.3860     4.2420    -1.3840 ho         1 HG1       0.403000
     45 H23         -5.6790     2.2040    -4.3420 h1         1 HG1       0.079700
     46 H24         -7.3480     2.1530    -3.7560 h1         1 HG1       0.079700
     47 OAE         -5.3040    -0.4300    -4.3590 oh         1 HG1      -0.544800
     48 H27         -8.0660     0.8050    -5.7930 h1         1 HG1       0.052700
     49 H28         -6.6620     1.9700    -6.8500 ho         1 HG1       0.395000
     50 H29         -7.8580    -1.6240    -5.9330 h1         1 HG1       0.035700
     51 C17         -7.5130    -0.8750    -7.9180 c3         1 HG1       0.126100
     52 H31         -5.9450    -2.5530    -6.1800 ho         1 HG1       0.386000
     53 C18         -7.5630    -2.2600    -8.5640 c3         1 HG1       0.105400
     54 O6          -7.8120    -2.1240    -9.9650 oh         1 HG1      -0.615800
     55 H30         -6.7780    -0.2640    -8.4290 h1         1 HG1       0.077700
     56 O7          -8.7970    -0.2560    -8.0150 oh         1 HG1      -0.619800
     57 H26         -5.3770    -1.2300    -3.8640 ho         1 HG1       0.383000
     58 H32         -6.6160    -2.7640    -8.4140 h1         1 HG1       0.029700
     59 H33         -8.3580    -2.8410    -8.1120 h1         1 HG1       0.029700
     60 H34         -7.8690    -2.9780   -10.3590 ho         1 HG1       0.407000
     61 H35         -8.9410     0.0320    -8.9010 ho         1 HG1       0.421000
@<TRIPOS>BOND
     1     1     2 1
     2     1    23 1
     3     1    24 1
     4     2    25 1
     5     2    26 1
     6     3     2 1
     7     3    27 1
     8     3    28 1
     9     4     3 1
    10     4    29 1
    11     4    30 1
    12     5     6 1
    13     5     4 1
    14     5    31 1
    15     5    32 1
    16     6     1 1
    17     6    33 1
    18     7     8 1
    19     7     6 1
    20     7    34 1
    21     7    35 1
    22     8    36 1
    23     8    37 1
    24     9     8 1
    25     9    38 1
    26     9    39 1
    27    10     9 1
    28    10    11 2
    29    12    10 1
    30    13    12 1
    31    13    14 1
    32    13    40 1
    33    13    41 1
    34    14    42 1
    35    14    43 1
    36    15    14 1
    37    15    44 1
    38    16    12 1
    39    16    45 1
    40    16    46 1
    41    17    16 1
    42    17    47 1
    43    18    17 1
    44    19    17 1
    45    19    48 1
    46    20    19 1
    47    20    49 1
    48    21    19 1
    49    21    50 1
    50    21    51 1
    51    22    21 1
    52    22    52 1
    53    51    53 1
    54    53    54 1
    55    51    55 1
    56    51    56 1
    57    47    57 1
    58    53    58 1
    59    53    59 1
    60    54    60 1
    61    56    61 1
@<TRIPOS>SUBSTRUCTURE
     1 HG1         1 TEMP              0 ****  ****    0 ROOT
