@<TRIPOS>MOLECULE
molecule
   18    17     1     0     0
SMALL
bcc


@<TRIPOS>ATOM
      1 O3P          0.0000     0.0000     0.0000 o          1 HG3      -0.910500
      2 P            1.6100     0.0000     0.0000 p5         1 HG3       1.181900
      3 O1P          2.1470     0.0000     1.5180 o          1 HG3      -0.910500
      4 O2P          2.1030    -1.2090    -0.6980 o          1 HG3      -0.910500
      5 O4P          2.1470     1.3140    -0.7590 os         1 HG3      -0.576200
      6 C3           3.5320     1.5520    -1.0190 c3         1 HG3       0.214400
      7 C2           3.6920     2.8850    -1.7520 c3         1 HG3       0.155100
      8 O            3.2780     3.9520    -0.8970 oh         1 HG3      -0.577800
      9 C1           5.1590     3.0810    -2.1400 c3         1 HG3       0.318900
     10 O1A          5.3080     4.3260    -2.8250 oh         1 HG3      -0.601800
     11 O1           5.9660     3.0870    -0.9600 oh         1 HG3      -0.601800
     12 H3           3.9270     0.7520    -1.6340 h1         1 HG3       0.025200
     13 H4           4.0740     1.5880    -0.0820 h1         1 HG3       0.025200
     14 H5           3.0800     2.8810    -2.6460 h1         1 HG3       0.035700
     15 H6           2.5290     4.3840    -1.2730 ho         1 HG3       0.387000
     16 H7           5.9110     4.2200    -3.5420 ho         1 HG3       0.367500
     17 H8           6.8770     3.1000    -1.2020 ho         1 HG3       0.367500
     18 H9           5.4720     2.2720    -2.7880 h2         1 HG3       0.010700
@<TRIPOS>BOND
     1    11     9 1
     2     9    10 1
     3     9     7 1
     4     8     7 1
     5     7     6 1
     6     6     5 1
     7     5     2 1
     8     2     4 1
     9     2     1 1
    10     2     3 1
    11     6    12 1
    12     6    13 1
    13     7    14 1
    14     8    15 1
    15    10    16 1
    16    11    17 1
    17     9    18 1
@<TRIPOS>SUBSTRUCTURE
     1 HG3         1 TEMP              0 ****  ****    0 ROOT
