@<TRIPOS>MOLECULE
molecule
   90    95     1     0     0
SMALL
bcc


@<TRIPOS>ATOM
      1 C10          0.0000     0.0000     0.0000 cc         1 HG4       0.316600
      2 C15          1.3970     0.0000     0.0000 cc         1 HG4      -0.291800
      3 C17          1.7630     0.0000     1.3350 cd         1 HG4      -0.222900
      4 C22          5.4650    -0.2130     1.5540 cc         1 HG4       0.532400
      5 C24          7.1100    -0.3600     2.9760 ca         1 HG4       0.113400
      6 C28          9.8560    -0.6160     2.6090 ca         1 HG4      -0.134000
      7 C01          0.3520     1.4400     4.0120 c3         1 HG4      -0.108600
      8 C11         -0.8860     0.0010    -1.2180 c3         1 HG4      -0.108400
      9 C18          3.1310    -0.0010     1.8750 c          1 HG4       0.709200
     10 C25          7.9470    -0.4340     4.0870 ca         1 HG4       0.051500
     11 C27          9.3210    -0.5620     3.9030 ca         1 HG4      -0.233100
     12 C30          9.0380    -0.5440     1.5190 ca         1 HG4      -0.094000
     13 C32          7.6640    -0.4160     1.6840 ca         1 HG4      -0.059200
     14 C37          6.8430     1.0990    -1.1710 c3         1 HG4      -0.109400
     15 C40          6.9260     1.0860    -2.6990 c3         1 HG4      -0.109400
     16 C43          7.0870     2.5180    -3.2120 c3         1 HG4       0.044800
     17 C47          6.1160     2.6010    -5.5430 cd         1 HG4       0.532400
     18 C50          3.8320     2.8120    -6.1190 c          1 HG4       0.709200
     19 C52          2.4130     2.8410    -5.7280 cd         1 HG4      -0.222900
     20 C53          1.9070     2.8860    -4.4400 cc         1 HG4      -0.291800
     21 C55          0.5190     2.8970    -4.5890 cc         1 HG4       0.316600
     22 C56         -0.4940     2.9430    -3.4730 c3         1 HG4      -0.108400
     23 C65          1.2770     1.3470    -8.5040 c3         1 HG4      -0.108600
     24 C70          7.9050     2.4390    -6.7770 ca         1 HG4       0.113400
     25 C71          8.8570     2.3500    -7.7900 ca         1 HG4       0.051500
     26 C73         10.2030     2.2180    -7.4560 ca         1 HG4      -0.233100
     27 C74         10.5950     2.1770    -6.1130 ca         1 HG4      -0.134000
     28 C76          9.6630     2.2650    -5.1170 ca         1 HG4      -0.094000
     29 C78          8.3170     2.3970    -5.4320 ca         1 HG4      -0.059200
     30 C79         11.2200     2.1220    -8.5230 c          1 HG4       0.507700
     31 C84         10.2170    -0.6430     5.0740 c          1 HG4       0.507700
     32 N08          0.5990     0.0010     2.0500 na         1 HG4       0.199900
     33 N09         -0.4010    -0.0040     1.2450 nd         1 HG4      -0.484300
     34 N20          4.1850    -0.1020     1.0410 ns         1 HG4      -0.461400
     35 N23          5.7640    -0.2360     2.8280 nd         1 HG4      -0.560100
     36 N33          6.6020    -0.3200     0.8070 na         1 HG4      -0.168300
     37 N46          7.1660     2.5060    -4.6760 na         1 HG4      -0.168300
     38 N60          0.2520     2.8620    -5.8700 nd         1 HG4      -0.484300
     39 N61          1.3320     2.8340    -6.5640 na         1 HG4       0.199900
     40 N69          6.5520     2.5620    -6.7770 nc         1 HG4      -0.560100
     41 N80         12.5230     1.9950    -8.2020 nz         1 HG4      -0.676900
     42 N85         11.5480    -0.7670     4.8980 nz         1 HG4      -0.676900
     43 O19          3.3120     0.0910     3.0750 o          1 HG4      -0.522600
     44 O51          4.1400     2.8670    -7.2940 o          1 HG4      -0.522600
     45 O83         10.8820     2.1580    -9.6910 o          1 HG4      -0.415600
     46 O88          9.7540    -0.5960     6.1980 o          1 HG4      -0.415600
     47 H16          2.0340    -0.2670    -0.8350 ha         1 HG4       0.145000
     48 H29         10.9270    -0.7160     2.4730 ha         1 HG4       0.107000
     49 H04         -0.6770     1.7570     3.8880 hc         1 HG4       0.053867
     50 H03          1.0020     2.0960     3.4460 hc         1 HG4       0.053867
     51 H02          0.6180     1.4850     5.0610 hc         1 HG4       0.053867
     52 H06          1.4080    -0.4300     3.9320 h1         1 HG4       0.090450
     53 H07         -0.3510    -0.5820     3.8220 h1         1 HG4       0.090450
     54 H13         -1.4270     0.9380    -1.2710 hc         1 HG4       0.054700
     55 H12         -1.5910    -0.8190    -1.1530 hc         1 HG4       0.054700
     56 H14         -0.2780    -0.1160    -2.1070 hc         1 HG4       0.054700
     57 H26          7.5320    -0.3920     5.0870 ha         1 HG4       0.189000
     58 H31          9.4610    -0.5870     0.5230 ha         1 HG4       0.141000
     59 H35          7.5350    -0.9250    -0.9670 h1         1 HG4       0.073700
     60 H36          5.7760    -0.7630    -1.0650 h1         1 HG4       0.073700
     61 H38          7.7500     1.5290    -0.7640 hc         1 HG4       0.061950
     62 H39          5.9910     1.6920    -0.8600 hc         1 HG4       0.061950
     63 H41          7.7780     0.4930    -3.0090 hc         1 HG4       0.061950
     64 H42          6.0190     0.6560    -3.1060 hc         1 HG4       0.061950
     65 H44          7.9940     2.9480    -2.8050 h1         1 HG4       0.073700
     66 H45          6.2350     3.1110    -2.9010 h1         1 HG4       0.073700
     67 H54          2.4550     3.1730    -3.5500 ha         1 HG4       0.145000
     68 H59         -1.1830     2.1140    -3.5760 hc         1 HG4       0.054700
     69 H58          0.0160     2.8730    -2.5200 hc         1 HG4       0.054700
     70 H57         -1.0420     3.8760    -3.5220 hc         1 HG4       0.054700
     71 H63          0.5910     3.3830    -8.4500 h1         1 HG4       0.090450
     72 H64          2.3480     3.2030    -8.3450 h1         1 HG4       0.090450
     73 H66          0.2400     1.0380    -8.4630 hc         1 HG4       0.053867
     74 H67          1.8690     0.7130    -7.8560 hc         1 HG4       0.053867
     75 H68          1.6390     1.2620    -9.5220 hc         1 HG4       0.053867
     76 H72          8.5540     2.3820    -8.8290 ha         1 HG4       0.189000
     77 H75         11.6430     2.0740    -5.8610 ha         1 HG4       0.107000
     78 H77          9.9750     2.2320    -4.0810 ha         1 HG4       0.141000
     79 H21          4.0400    -0.1100     0.0510 hn         1 HG4       0.339500
     80 H49          4.5430     2.7810    -4.2060 hn         1 HG4       0.339500
     81 H82         13.0700     1.9450    -9.0400 hn         1 HG4       0.476467
     82 H81         12.8130     2.7860    -7.6620 hn         1 HG4       0.476467
     83 H87         12.0000    -0.8080     5.7900 hn         1 HG4       0.476467
     84 H86         11.7400    -1.6070     4.3880 hn         1 HG4       0.476467
     85 C05          0.5070     0.0030     3.5130 c3         1 HG4       0.045300
     86 C34          6.6820    -0.3330    -0.6570 c3         1 HG4       0.044800
     87 C62          1.3960     2.7950    -8.0260 c3         1 HG4       0.045300
     88 H803        12.6560     1.1550    -7.6750 hn         1 HG4       0.476467
     89 H853        11.8900     0.0160     4.3780 hn         1 HG4       0.476467
     90 N48          4.7890     2.7270    -5.1740 ns         1 HG4      -0.461400
@<TRIPOS>BOND
     1    22    21 1
     2    20    21 1
     3    20    19 2
     4    21    38 2
     5    44    18 2
     6    38    39 1
     7    19    18 1
     8    19    39 1
     9    18    90 1
    10     7    85 1
    11    39    87 1
    12     8     1 1
    13    33     1 2
    14    33    32 1
    15    90    17 1
    16    87    23 1
    17    40    17 2
    18    40    24 1
    19     1     2 1
    20    85    32 1
    21    32     3 1
    22    17    37 1
    23    25    24 ar
    24    25    26 ar
    25    24    29 ar
    26    41    30 1
    27     2     3 2
    28     3     9 1
    29    37    29 1
    30    37    16 1
    31    30    26 1
    32    30    45 2
    33    26    27 ar
    34    29    28 ar
    35    15    16 1
    36    15    14 1
    37     9    34 1
    38     9    43 2
    39    34     4 1
    40    86    14 1
    41    86    36 1
    42    27    28 ar
    43     4    36 1
    44     4    35 2
    45    36    13 1
    46    35     5 1
    47    13    12 ar
    48    13     5 ar
    49    12     6 ar
    50     5    10 ar
    51     6    11 ar
    52    10    11 ar
    53    11    31 1
    54    31    42 1
    55    31    46 2
    56     2    47 1
    57     6    48 1
    58     7    49 1
    59     7    50 1
    60     7    51 1
    61    85    52 1
    62    85    53 1
    63     8    54 1
    64     8    55 1
    65     8    56 1
    66    10    57 1
    67    12    58 1
    68    86    59 1
    69    86    60 1
    70    14    61 1
    71    14    62 1
    72    15    63 1
    73    15    64 1
    74    16    65 1
    75    16    66 1
    76    20    67 1
    77    22    68 1
    78    22    69 1
    79    22    70 1
    80    87    71 1
    81    87    72 1
    82    23    73 1
    83    23    74 1
    84    23    75 1
    85    25    76 1
    86    27    77 1
    87    28    78 1
    88    34    79 1
    89    90    80 1
    90    41    81 1
    91    41    82 1
    92    42    83 1
    93    42    84 1
    94    88    41 1
    95    89    42 1
@<TRIPOS>SUBSTRUCTURE
     1 HG4         1 TEMP              0 ****  ****    0 ROOT
