@<TRIPOS>MOLECULE
HG4
   90    95     1     0     0
SMALL
bcc


@<TRIPOS>ATOM
      1 C10          0.0000     0.0000     0.0000 cc         1 HG4       0.320600
      2 C15          1.3970     0.0000     0.0000 cc         1 HG4      -0.276800
      3 C17          1.7630     0.0000     1.3350 cd         1 HG4      -0.424400
      4 C22          5.4650    -0.2130     1.5540 cc         1 HG4       0.191900
      5 C24          7.1100    -0.3600     2.9760 ca         1 HG4       0.073400
      6 C28          9.8560    -0.6160     2.6090 ca         1 HG4      -0.114000
      7 C01          0.3520     1.4400     4.0120 c3         1 HG4      -0.000100
      8 C11         -0.8860     0.0010    -1.2180 c3         1 HG4      -0.001400
      9 C18          3.1310    -0.0010     1.8750 c          1 HG4       0.630200
     10 C25          7.9470    -0.4340     4.0870 ca         1 HG4       0.113000
     11 C27          9.3210    -0.5620     3.9030 ca         1 HG4      -0.261100
     12 C30          9.0380    -0.5440     1.5190 ca         1 HG4      -0.046500
     13 C32          7.6640    -0.4160     1.6840 ca         1 HG4      -0.228200
     14 C37          6.8430     1.0990    -1.1710 c3         1 HG4      -0.045400
     15 C40          6.9260     1.0860    -2.6990 c3         1 HG4      -0.045400
     16 C43          7.0870     2.5180    -3.2120 c3         1 HG4      -0.036700
     17 C47          6.1160     2.6010    -5.5430 cc         1 HG4       0.191900
     18 C50          3.8320     2.8120    -6.1190 c          1 HG4       0.630200
     19 C52          2.4130     2.8410    -5.7280 cc         1 HG4      -0.424400
     20 C53          1.9070     2.8860    -4.4400 cd         1 HG4      -0.276800
     21 C55          0.5190     2.8970    -4.5890 cd         1 HG4       0.320600
     22 C56         -0.4940     2.9430    -3.4730 c3         1 HG4      -0.001400
     23 C65          1.2770     1.3470    -8.5040 c3         1 HG4      -0.000100
     24 C70          7.9050     2.4390    -6.7770 ca         1 HG4       0.073400
     25 C71          8.8570     2.3500    -7.7900 ca         1 HG4       0.113000
     26 C73         10.2030     2.2180    -7.4560 ca         1 HG4      -0.261100
     27 C74         10.5950     2.1770    -6.1130 ca         1 HG4      -0.114000
     28 C76          9.6630     2.2650    -5.1170 ca         1 HG4      -0.046500
     29 C78          8.3170     2.3970    -5.4320 ca         1 HG4      -0.228200
     30 C79         11.2200     2.1220    -8.5230 c          1 HG4       0.355700
     31 C84         10.2170    -0.6430     5.0740 c          1 HG4       0.355700
     32 N08          0.5990     0.0010     2.0500 na         1 HG4       0.692900
     33 N09         -0.4010    -0.0040     1.2450 nd         1 HG4      -0.615300
     34 N20          4.1850    -0.1020     1.0410 ns         1 HG4      -0.016900
     35 N23          5.7640    -0.2360     2.8280 nd         1 HG4      -0.469600
     36 N33          6.6020    -0.3200     0.8070 na         1 HG4       0.290200
     37 N46          7.1660     2.5060    -4.6760 na         1 HG4       0.290200
     38 N60          0.2520     2.8620    -5.8700 nc         1 HG4      -0.615300
     39 N61          1.3320     2.8340    -6.5640 na         1 HG4       0.692900
     40 N69          6.5520     2.5620    -6.7770 nd         1 HG4      -0.469600
     41 N80         12.5230     1.9950    -8.2020 nz         1 HG4       0.202600
     42 N85         11.5480    -0.7670     4.8980 nz         1 HG4       0.202600
     43 O19          3.3120     0.0910     3.0750 o          1 HG4      -0.569100
     44 O51          4.1400     2.8670    -7.2940 o          1 HG4      -0.569100
     45 O83         10.8820     2.1580    -9.6910 o          1 HG4      -0.429100
     46 O88          9.7540    -0.5960     6.1980 o          1 HG4      -0.429100
     47 H16          2.0340    -0.2670    -0.8350 ha         1 HG4       0.123500
     48 H29         10.9270    -0.7160     2.4730 ha         1 HG4       0.080000
     49 H04         -0.6770     1.7570     3.8880 hc         1 HG4       0.017033
     50 H03          1.0020     2.0960     3.4460 hc         1 HG4       0.017033
     51 H02          0.6180     1.4850     5.0610 hc         1 HG4       0.017033
     52 H06          1.4080    -0.4300     3.9320 h1         1 HG4       0.063950
     53 H07         -0.3510    -0.5820     3.8220 h1         1 HG4       0.063950
     54 H13         -1.4270     0.9380    -1.2710 hc         1 HG4       0.014533
     55 H12         -1.5910    -0.8190    -1.1530 hc         1 HG4       0.014533
     56 H14         -0.2780    -0.1160    -2.1070 hc         1 HG4       0.014533
     57 H26          7.5320    -0.3920     5.0870 ha         1 HG4       0.145000
     58 H31          9.4610    -0.5870     0.5230 ha         1 HG4       0.109000
     59 H35          7.5350    -0.9250    -0.9670 h1         1 HG4       0.044450
     60 H36          5.7760    -0.7630    -1.0650 h1         1 HG4       0.044450
     61 H38          7.7500     1.5290    -0.7640 hc         1 HG4       0.031200
     62 H39          5.9910     1.6920    -0.8600 hc         1 HG4       0.031200
     63 H41          7.7780     0.4930    -3.0090 hc         1 HG4       0.031200
     64 H42          6.0190     0.6560    -3.1060 hc         1 HG4       0.031200
     65 H44          7.9940     2.9480    -2.8050 h1         1 HG4       0.044450
     66 H45          6.2350     3.1110    -2.9010 h1         1 HG4       0.044450
     67 H54          2.4550     3.1730    -3.5500 ha         1 HG4       0.123500
     68 H59         -1.1830     2.1140    -3.5760 hc         1 HG4       0.014533
     69 H58          0.0160     2.8730    -2.5200 hc         1 HG4       0.014533
     70 H57         -1.0420     3.8760    -3.5220 hc         1 HG4       0.014533
     71 H63          0.5910     3.3830    -8.4500 h1         1 HG4       0.063950
     72 H64          2.3480     3.2030    -8.3450 h1         1 HG4       0.063950
     73 H66          0.2400     1.0380    -8.4630 hc         1 HG4       0.017033
     74 H67          1.8690     0.7130    -7.8560 hc         1 HG4       0.017033
     75 H68          1.6390     1.2620    -9.5220 hc         1 HG4       0.017033
     76 H72          8.5540     2.3820    -8.8290 ha         1 HG4       0.145000
     77 H75         11.6430     2.0740    -5.8610 ha         1 HG4       0.080000
     78 H77          9.9750     2.2320    -4.0810 ha         1 HG4       0.109000
     79 H21          4.0400    -0.1100     0.0510 hn         1 HG4       0.176500
     80 H49          4.5430     2.7810    -4.2060 hn         1 HG4       0.176500
     81 H82         13.0700     1.9450    -9.0400 hn         1 HG4       0.244967
     82 H81         12.8130     2.7860    -7.6620 hn         1 HG4       0.244967
     83 H87         12.0000    -0.8080     5.7900 hn         1 HG4       0.244967
     84 H86         11.7400    -1.6070     4.3880 hn         1 HG4       0.244967
     85 C05          0.5070     0.0030     3.5130 c3         1 HG4      -0.077700
     86 C34          6.6820    -0.3330    -0.6570 c3         1 HG4      -0.036700
     87 C62          1.3960     2.7950    -8.0260 c3         1 HG4      -0.077700
     88 H803        12.6560     1.1550    -7.6750 hn         1 HG4       0.244967
     89 H853        11.8900     0.0160     4.3780 hn         1 HG4       0.244967
     90 N48          4.7890     2.7270    -5.1740 ns         1 HG4      -0.016900
@<TRIPOS>BOND
     1     1     2 1   
     2     1     8 1   
     3     1    33 2   
     4     2     3 2   
     5     2    47 1   
     6     3     9 1   
     7     3    32 1   
     8     4    34 1   
     9     4    35 2   
    10     4    36 1   
    11     5    10 ar  
    12     5    13 ar  
    13     5    35 1   
    14     6    11 ar  
    15     6    12 ar  
    16     6    48 1   
    17     7    49 1   
    18     7    50 1   
    19     7    51 1   
    20     7    85 1   
    21     8    54 1   
    22     8    55 1   
    23     8    56 1   
    24     9    34 1   
    25     9    43 2   
    26    10    11 ar  
    27    10    57 1   
    28    11    31 1   
    29    12    13 ar  
    30    12    58 1   
    31    13    36 1   
    32    14    15 1   
    33    14    61 1   
    34    14    62 1   
    35    14    86 1   
    36    15    16 1   
    37    15    63 1   
    38    15    64 1   
    39    16    37 1   
    40    16    65 1   
    41    16    66 1   
    42    17    37 1   
    43    17    40 2   
    44    17    90 1   
    45    18    19 1   
    46    18    44 2   
    47    18    90 1   
    48    19    20 2   
    49    19    39 1   
    50    20    21 1   
    51    20    67 1   
    52    21    22 1   
    53    21    38 2   
    54    22    68 1   
    55    22    69 1   
    56    22    70 1   
    57    23    73 1   
    58    23    74 1   
    59    23    75 1   
    60    23    87 1   
    61    24    25 ar  
    62    24    29 ar  
    63    24    40 1   
    64    25    26 ar  
    65    25    76 1   
    66    26    27 ar  
    67    26    30 1   
    68    27    28 ar  
    69    27    77 1   
    70    28    29 ar  
    71    28    78 1   
    72    29    37 1   
    73    30    41 1   
    74    30    45 2   
    75    31    42 1   
    76    31    46 2   
    77    32    33 1   
    78    32    85 1   
    79    34    79 1   
    80    36    86 1   
    81    38    39 1   
    82    39    87 1   
    83    41    81 1   
    84    41    82 1   
    85    41    88 1   
    86    42    83 1   
    87    42    84 1   
    88    42    89 1   
    89    52    85 1   
    90    53    85 1   
    91    59    86 1   
    92    60    86 1   
    93    71    87 1   
    94    72    87 1   
    95    80    90 1   
@<TRIPOS>SUBSTRUCTURE
     1 HG4         1 TEMP              0 ****  ****    0 ROOT
