@<TRIPOS>MOLECULE
molecule
   60    59     1     0     0
SMALL
bcc


@<TRIPOS>ATOM
      1 C9           0.0000     0.0000     0.0000 c3         1 HG9      -0.082400
      2 C12          1.5280     0.0000     0.0000 c3         1 HG9      -0.079400
      3 C15          2.0840     0.0000     1.4260 c3         1 HG9      -0.077400
      4 C18          3.6140    -0.0390     1.4240 c3         1 HG9      -0.077400
      5 C21          4.2230    -0.1130     2.8280 c3         1 HG9      -0.079400
      6 C24          5.7510    -0.2250     2.8210 c3         1 HG9      -0.066400
      7 C27          6.3340    -0.2870     4.2340 c3         1 HG9      -0.150400
      8 C30          7.8440    -0.4620     4.2380 c          1 HG9       0.674100
      9 N33          8.4950    -0.5320     5.4700 n          1 HG9      -0.503800
     10 O34          8.4280    -0.5470     3.1520 o          1 HG9      -0.573100
     11 C35          7.7830    -0.4280     6.7420 c3         1 HG9       0.101000
     12 C36          9.9370    -0.7140     5.5870 c3         1 HG9       0.116000
     13 C37         10.2700    -2.2100     5.6430 c3         1 HG9       0.111100
     14 C40         11.7880    -2.4610     5.7640 c3         1 HG9       0.128100
     15 C41         12.4250    -1.8170     7.0180 c3         1 HG9       0.145100
     16 C42         13.9410    -2.0870     7.1350 c3         1 HG9       0.130100
     17 C43         14.2910    -3.5750     7.1910 c3         1 HG9       0.136400
     18 O44         15.6920    -3.7450     7.3340 oh         1 HG9      -0.607800
     19 O47          9.7850    -2.8270     4.4520 oh         1 HG9      -0.580800
     20 O49         12.4370    -1.9510     4.6010 oh         1 HG9      -0.598800
     21 O51         11.7890    -2.3100     8.1950 oh         1 HG9      -0.608800
     22 O53         14.4430    -1.4590     8.3140 oh         1 HG9      -0.602800
     23 C60          7.7160     1.0260     7.1700 c3         1 HG9       0.116400
     24 O63          6.9930     1.1260     8.3900 oh         1 HG9      -0.611800
     25 C1          -0.5570     0.0340    -1.4150 c3         1 HG9      -0.090100
     26 H91         -0.3540     0.8700     0.5400 hc         1 HG9       0.037700
     27 H92         -0.3540    -0.8940     0.4980 hc         1 HG9       0.037700
     28 H121         1.8830     0.8830    -0.5190 hc         1 HG9       0.040700
     29 H122         1.8830    -0.8830    -0.5190 hc         1 HG9       0.040700
     30 H151         1.7520     0.8960     1.9360 hc         1 HG9       0.038700
     31 H152         1.7070    -0.8680     1.9530 hc         1 HG9       0.038700
     32 H181         3.9380    -0.9050     0.8600 hc         1 HG9       0.040700
     33 H182         3.9830     0.8540     0.9330 hc         1 HG9       0.040700
     34 H211         3.8140    -0.9760     3.3380 hc         1 HG9       0.035200
     35 H212         3.9430     0.7790     3.3750 hc         1 HG9       0.035200
     36 H241         6.1640     0.6350     2.3090 hc         1 HG9       0.056200
     37 H242         6.0340    -1.1230     2.2850 hc         1 HG9       0.056200
     38 H271         6.0870     0.6300     4.7550 hc         1 HG9       0.057200
     39 H272         5.8850    -1.1200     4.7610 hc         1 HG9       0.057200
     40 H351         8.3070    -1.0030     7.4970 h1         1 HG9       0.061700
     41 H352         6.7780    -0.8170     6.6260 h1         1 HG9       0.061700
     42 H361        10.2880    -0.2330     6.4920 h1         1 HG9       0.069200
     43 H362        10.4270    -0.2690     4.7290 h1         1 HG9       0.069200
     44 H37          9.7700    -2.6500     6.4980 h1         1 HG9       0.045700
     45 H40         11.9540    -3.5310     5.8080 h1         1 HG9       0.038700
     46 H41         12.2720    -0.7460     6.9680 h1         1 HG9       0.046700
     47 H42         14.4350    -1.6510     6.2760 h1         1 HG9       0.055700
     48 H431        13.7880    -4.0300     8.0350 h1         1 HG9       0.029200
     49 H432        13.9640    -4.0550     6.2770 h1         1 HG9       0.029200
     50 H44         15.8930    -4.6640     7.3900 ho         1 HG9       0.406000
     51 H47          9.5960    -3.7350     4.6230 ho         1 HG9       0.396000
     52 H49         12.5350    -2.6420     3.9670 ho         1 HG9       0.418000
     53 H51         11.8310    -1.6560     8.8730 ho         1 HG9       0.421000
     54 H53         15.1140    -0.8400     8.0790 ho         1 HG9       0.411000
     55 H601         8.7200     1.4080     7.3130 h1         1 HG9       0.025200
     56 H602         7.2150     1.6060     6.4050 h1         1 HG9       0.025200
     57 H63          7.0110     2.0180     8.6950 ho         1 HG9       0.409000
     58 H11         -1.6390     0.0090    -1.3770 hc         1 HG9       0.032700
     59 H12         -0.1950    -0.8260    -1.9660 hc         1 HG9       0.032700
     60 H13         -0.2330     0.9420    -1.9090 hc         1 HG9       0.032700
@<TRIPOS>BOND
     1     1     2 1
     2     1    25 1
     3     1    26 1
     4     1    27 1
     5     2     3 1
     6     2    28 1
     7     2    29 1
     8     3     4 1
     9     3    30 1
    10     3    31 1
    11     4     5 1
    12     4    32 1
    13     4    33 1
    14     5     6 1
    15     5    34 1
    16     5    35 1
    17     6     7 1
    18     6    36 1
    19     6    37 1
    20     7     8 1
    21     7    38 1
    22     7    39 1
    23     8     9 1
    24     8    10 2
    25     9    11 1
    26     9    12 1
    27    11    23 1
    28    11    40 1
    29    11    41 1
    30    12    13 1
    31    12    42 1
    32    12    43 1
    33    13    14 1
    34    13    19 1
    35    13    44 1
    36    14    15 1
    37    14    20 1
    38    14    45 1
    39    15    16 1
    40    15    21 1
    41    15    46 1
    42    16    17 1
    43    16    22 1
    44    16    47 1
    45    17    18 1
    46    17    48 1
    47    17    49 1
    48    18    50 1
    49    19    51 1
    50    20    52 1
    51    21    53 1
    52    22    54 1
    53    23    24 1
    54    23    55 1
    55    23    56 1
    56    24    57 1
    57    25    58 1
    58    25    59 1
    59    25    60 1
@<TRIPOS>SUBSTRUCTURE
     1 HG9         1 TEMP              0 ****  ****    0 ROOT
