@<TRIPOS>MOLECULE
molecule
   21    20     1     0     0
SMALL
bcc


@<TRIPOS>ATOM
      1 N            0.0000     0.0000     0.0000 nz         1 HGA      -0.792600
      2 CA           1.4680     0.0000     0.0000 c3         1 HGA      -0.023500
      3 CB           1.9790     0.0000     1.4420 c3         1 HGA      -0.073400
      4 CG           1.4700     1.2480     2.1630 c3         1 HGA      -0.171400
      5 CD           1.9720     1.2480     3.5830 c          1 HGA       0.670100
      6 OE1          2.6700     0.3400     3.9790 o          1 HGA      -0.548100
      7 NE2          1.6470     2.2590     4.4140 ns         1 HGA      -0.475400
      8 OZ2          2.1200     2.2590     5.7480 oh         1 HGA      -0.353100
      9 C            1.9710    -1.2300    -0.7120 c          1 HGA       0.868600
     10 O            3.1430    -1.1960    -1.3640 o          1 HGA      -0.769300
     11 OXT          1.3180    -2.2460    -0.6950 o          1 HGA      -0.769300
     12 HN1         -0.3340     0.9380     0.0980 hn         1 HGA       0.438467
     13 HN2         -0.3340    -0.5540     0.7640 hn         1 HGA       0.438467
     14 HA           1.8290     0.8850    -0.5100 hx         1 HGA       0.102700
     15 HB1          3.0620    -0.0000     1.4410 hc         1 HGA       0.105700
     16 HB2          1.6180    -0.8840     1.9530 hc         1 HGA       0.105700
     17 HG1          0.3870     1.2490     2.1630 hc         1 HGA       0.045700
     18 HG2          1.8320     2.1330     1.6520 hc         1 HGA       0.045700
     19 HNE          1.0720     3.0100     4.0870 hn         1 HGA       0.315500
     20 HOZ          1.8020     3.0270     6.1940 ho         1 HGA       0.401000
     21 HN3         -0.3340    -0.3900    -0.8590 hn         1 HGA       0.438467
@<TRIPOS>BOND
     1     1     2 1
     2     1    12 1
     3     1    13 1
     4     2     3 1
     5     2     9 1
     6     2    14 1
     7     3     4 1
     8     3    15 1
     9     3    16 1
    10     4     5 1
    11     4    17 1
    12     4    18 1
    13     5     6 2
    14     5     7 1
    15     7     8 1
    16     7    19 1
    17     8    20 1
    18     9    10 1
    19     9    11 1
    20    21     1 1
@<TRIPOS>SUBSTRUCTURE
     1 HGA         1 TEMP              0 ****  ****    0 ROOT
