@<TRIPOS>MOLECULE
molecule
   34    35     1     0     0
SMALL
bcc


@<TRIPOS>ATOM
      1 N1           0.0000     0.0000     0.0000 nb         1 HGE      -0.612000
      2 C4           0.2750    -0.1490     6.0110 c3         1 HGE      -0.074900
      3 C5           0.8870    -0.0010     4.6160 c3         1 HGE       0.190800
      4 C6          -1.0940     1.1330     3.8040 c3         1 HGE       0.190800
      5 C7          -1.7650     1.0200     5.1750 c3         1 HGE      -0.074900
      6 C8           0.0360     0.0020     2.3480 ca         1 HGE       0.529900
      7 C10          1.3220     0.0000     0.0000 ca         1 HGE       0.229900
      8 C2           0.0690     2.3150     6.2320 c          1 HGE       0.616100
      9 O           -0.3140     3.5860     6.4290 os         1 HGE      -0.415900
     10 C1           0.7370     4.5860     6.5100 c3         1 HGE       0.147400
     11 C            0.1130     5.9640     6.7360 c3         1 HGE      -0.096100
     12 C3          -0.6900     1.0130     6.2650 c3         1 HGE      -0.098700
     13 N           -0.1820    -0.0000     3.6080 nh         1 HGE      -0.707300
     14 N2           1.3620     0.0010     2.3430 nb         1 HGE      -0.755000
     15 C11          2.0170     0.0000     1.1940 ca         1 HGE       0.326900
     16 C9          -0.6610     0.0010     1.1420 ca         1 HGE       0.268900
     17 H1          -0.2660    -1.0850     6.0700 hc         1 HGE       0.061950
     18 H2           1.0630    -0.1320     6.7540 hc         1 HGE       0.061950
     19 H3           1.5580    -0.8300     4.4280 h1         1 HGE       0.062950
     20 H4           1.4340     0.9320     4.5600 h1         1 HGE       0.062950
     21 H5          -0.5340     2.0590     3.7530 h1         1 HGE       0.062950
     22 H6          -1.8530     1.1210     3.0300 h1         1 HGE       0.062950
     23 H7          -2.3330     0.0980     5.2230 hc         1 HGE       0.061950
     24 H8          -2.4250     1.8660     5.3240 hc         1 HGE       0.061950
     25 H9           1.8620    -0.0010    -0.9390 h4         1 HGE       0.028100
     26 H10          1.3020     4.5920     5.5860 h1         1 HGE       0.050700
     27 H11          1.3980     4.3490     7.3350 h1         1 HGE       0.050700
     28 H12         -0.5140     6.2190     5.8900 hc         1 HGE       0.048700
     29 H13          0.8980     6.7030     6.8390 hc         1 HGE       0.048700
     30 H14         -0.4870     5.9460     7.6370 hc         1 HGE       0.048700
     31 H15         -1.1590     0.8870     7.2330 hc         1 HGE       0.075700
     32 H16          3.1000    -0.0010     1.1890 h4         1 HGE       0.023100
     33 H17         -1.7450     0.0010     1.1410 h4         1 HGE       0.031100
     34 O1           1.2420     2.0460     6.1300 o          1 HGE      -0.570000
@<TRIPOS>BOND
     1    11    10 1
     2    10     9 1
     3     9     8 1
     4    34     8 2
     5     8    12 1
     6     2    12 1
     7     2     3 1
     8    12     5 1
     9     3    13 1
    10     5     4 1
    11     4    13 1
    12    14    15 ar
    13    14     6 ar
    14    13     6 1
    15    15     7 ar
    16     6    16 ar
    17     7     1 ar
    18    16     1 ar
    19     2    17 1
    20     2    18 1
    21     3    19 1
    22     3    20 1
    23     4    21 1
    24     4    22 1
    25     5    23 1
    26     5    24 1
    27     7    25 1
    28    10    26 1
    29    10    27 1
    30    11    28 1
    31    11    29 1
    32    11    30 1
    33    12    31 1
    34    15    32 1
    35    16    33 1
@<TRIPOS>SUBSTRUCTURE
     1 HGE         1 TEMP              0 ****  ****    0 ROOT
