@<TRIPOS>MOLECULE
HGE
   34    35     1     0     0
SMALL
bcc


@<TRIPOS>ATOM
      1 N1           0.0000     0.0000     0.0000 nb         1 HGE      -0.501000
      2 C4           0.2750    -0.1490     6.0110 c3         1 HGE      -0.019400
      3 C5           0.8870    -0.0010     4.6160 c3         1 HGE       0.125800
      4 C6          -1.0940     1.1330     3.8040 c3         1 HGE       0.125800
      5 C7          -1.7650     1.0200     5.1750 c3         1 HGE      -0.019400
      6 C8           0.0360     0.0020     2.3480 ca         1 HGE       0.397900
      7 C10          1.3220     0.0000     0.0000 ca         1 HGE       0.205900
      8 C2           0.0690     2.3150     6.2320 c          1 HGE       0.674100
      9 O           -0.3140     3.5860     6.4290 os         1 HGE      -0.396900
     10 C1           0.7370     4.5860     6.5100 c3         1 HGE       0.226400
     11 C            0.1130     5.9640     6.7360 c3         1 HGE      -0.003100
     12 C3          -0.6900     1.0130     6.2650 c3         1 HGE      -0.071700
     13 N           -0.1820    -0.0000     3.6080 nh         1 HGE      -0.388300
     14 N2           1.3620     0.0010     2.3430 nb         1 HGE      -0.708000
     15 C11          2.0170     0.0000     1.1940 ca         1 HGE       0.351900
     16 C9          -0.6610     0.0010     1.1420 ca         1 HGE       0.250900
     17 H1          -0.2660    -1.0850     6.0700 hc         1 HGE       0.030200
     18 H2           1.0630    -0.1320     6.7540 hc         1 HGE       0.030200
     19 H3           1.5580    -0.8300     4.4280 h1         1 HGE       0.041450
     20 H4           1.4340     0.9320     4.5600 h1         1 HGE       0.041450
     21 H5          -0.5340     2.0590     3.7530 h1         1 HGE       0.041450
     22 H6          -1.8530     1.1210     3.0300 h1         1 HGE       0.041450
     23 H7          -2.3330     0.0980     5.2230 hc         1 HGE       0.030200
     24 H8          -2.4250     1.8660     5.3240 hc         1 HGE       0.030200
     25 H9           1.8620    -0.0010    -0.9390 h4         1 HGE      -0.008900
     26 H10          1.3020     4.5920     5.5860 h1         1 HGE       0.010200
     27 H11          1.3980     4.3490     7.3350 h1         1 HGE       0.010200
     28 H12         -0.5140     6.2190     5.8900 hc         1 HGE       0.011700
     29 H13          0.8980     6.7030     6.8390 hc         1 HGE       0.011700
     30 H14         -0.4870     5.9460     7.6370 hc         1 HGE       0.011700
     31 H15         -1.1590     0.8870     7.2330 hc         1 HGE       0.041700
     32 H16          3.1000    -0.0010     1.1890 h4         1 HGE      -0.017900
     33 H17         -1.7450     0.0010     1.1410 h4         1 HGE      -0.007900
     34 O1           1.2420     2.0460     6.1300 o          1 HGE      -0.602000
@<TRIPOS>BOND
     1     1     7 ar  
     2     1    16 ar  
     3     2     3 1   
     4     2    12 1   
     5     2    17 1   
     6     2    18 1   
     7     3    13 1   
     8     3    19 1   
     9     3    20 1   
    10     4     5 1   
    11     4    13 1   
    12     4    21 1   
    13     4    22 1   
    14     5    12 1   
    15     5    23 1   
    16     5    24 1   
    17     6    13 1   
    18     6    14 ar  
    19     6    16 ar  
    20     7    15 ar  
    21     7    25 1   
    22     8     9 1   
    23     8    12 1   
    24     8    34 2   
    25     9    10 1   
    26    10    11 1   
    27    10    26 1   
    28    10    27 1   
    29    11    28 1   
    30    11    29 1   
    31    11    30 1   
    32    12    31 1   
    33    14    15 ar  
    34    15    32 1   
    35    16    33 1   
@<TRIPOS>SUBSTRUCTURE
     1 HGE         1 TEMP              0 ****  ****    0 ROOT
