@<TRIPOS>MOLECULE
HGF
   49    53     1     0     0
SMALL
bcc


@<TRIPOS>ATOM
      1 N1           0.0000     0.0000     0.0000 na         1 HGF       0.465600
      2 C3           1.3790     0.0000     0.0000 ca         1 HGF      -0.289200
      3 C4           2.3400     0.0000     1.0310 ca         1 HGF       0.030000
      4 C5           3.7210    -0.0010     0.7040 ca         1 HGF      -0.147300
      5 C6           4.6610     0.0010     1.7450 ca         1 HGF       0.432200
      6 N8           4.2650     0.0030     2.9950 nb         1 HGF      -0.578000
      7 C9           2.9770     0.0020     3.3410 cp         1 HGF       0.438800
      8 C10          1.9760     0.0020     2.3860 ca         1 HGF      -0.224300
      9 C12          2.6110     0.0040     4.7780 cp         1 HGF      -0.223800
     10 C13          1.2730    -0.0020     5.1660 ca         1 HGF       0.352200
     11 N15          0.9430    -0.0010     6.4420 nb         1 HGF      -0.546000
     12 C16          1.8510     0.0050     7.3970 ca         1 HGF       0.295200
     13 C18          3.2070     0.0120     7.0940 ca         1 HGF       0.034800
     14 C19          3.6020     0.0040     5.7630 ca         1 HGF      -0.081000
     15 O21          4.1330     0.0180     8.0870 os         1 HGF      -0.286900
     16 C22          3.6450     0.0190     9.4310 c3         1 HGF       0.197400
     17 C25          4.8270     0.0270    10.4030 c3         1 HGF       0.207400
     18 O28          5.5500     1.2520    10.2640 os         1 HGF      -0.408600
     19 C29          6.6790     1.3610    11.1310 c3         1 HGF       0.254700
     20 C33          4.1180    -0.0030    -0.6470 ca         1 HGF      -0.105000
     21 C35          3.1850    -0.0010    -1.6310 ca         1 HGF      -0.034000
     22 C37          1.8120     0.0010    -1.3320 ca         1 HGF      -0.015800
     23 C38          0.5940     0.0060    -2.1350 cc         1 HGF      -0.216400
     24 C39         -0.4680     0.0060    -1.2590 cd         1 HGF      -0.272300
     25 C40         -1.8890     0.0110    -1.7660 c3         1 HGF       0.062800
     26 C43         -1.9300     0.7270    -3.1170 c3         1 HGF       0.061000
     27 N46         -0.8720     0.2890    -4.0190 ns         1 HGF      -0.209900
     28 C48          0.3820     0.0080    -3.5880 c          1 HGF       0.685700
     29 O49          1.2870    -0.2290    -4.3660 o          1 HGF      -0.679500
     30 H6           5.7200     0.0020     1.5150 h4         1 HGF      -0.015900
     31 H10          0.9330     0.0010     2.6780 ha         1 HGF       0.115000
     32 H13          0.4960    -0.0070     4.4120 h4         1 HGF      -0.018900
     33 H16          1.5350     0.0090     8.4330 h4         1 HGF      -0.007900
     34 H19          4.6520     0.0090     5.4950 ha         1 HGF       0.144000
     35 H22          3.0460    -0.8690     9.5980 h1         1 HGF       0.009200
     36 H22A         3.0370     0.9000     9.5940 h1         1 HGF       0.009200
     37 H25          4.4600    -0.0620    11.4190 h1         1 HGF      -0.000300
     38 H25A         5.4830    -0.8060    10.1820 h1         1 HGF      -0.000300
     39 H29          6.3510     1.2980    12.1620 h1         1 HGF      -0.012967
     40 H29A         7.3730     0.5550    10.9240 h1         1 HGF      -0.012967
     41 H29B         7.1710     2.3120    10.9660 h1         1 HGF      -0.012967
     42 H33          5.1710    -0.0050    -0.9000 ha         1 HGF       0.111000
     43 H35          3.5040    -0.0010    -2.6670 ha         1 HGF       0.125000
     44 H40         -2.2330    -1.0090    -1.8870 hc         1 HGF       0.024200
     45 H40A        -2.5240     0.5320    -1.0600 hc         1 HGF       0.024200
     46 H43         -1.8240     1.7920    -2.9480 h1         1 HGF       0.014700
     47 H43A        -2.8880     0.5350    -3.5840 h1         1 HGF       0.014700
     48 HN46        -1.0800     0.1920    -4.9930 hn         1 HGF       0.181500
     49 HN1         -0.5710    -0.0040     0.8220 hn         1 HGF       0.107700
@<TRIPOS>BOND
     1     1     2 1   
     2     1    24 1   
     3     1    49 1   
     4     2     3 ar  
     5     2    22 ar  
     6     3     4 ar  
     7     3     8 ar  
     8     4     5 ar  
     9     4    20 ar  
    10     5     6 ar  
    11     5    30 1   
    12     6     7 ar  
    13     7     8 ar  
    14     7     9 1   
    15     8    31 1   
    16     9    10 ar  
    17     9    14 ar  
    18    10    11 ar  
    19    10    32 1   
    20    11    12 ar  
    21    12    13 ar  
    22    12    33 1   
    23    13    14 ar  
    24    13    15 1   
    25    14    34 1   
    26    15    16 1   
    27    16    17 1   
    28    16    35 1   
    29    16    36 1   
    30    17    18 1   
    31    17    37 1   
    32    17    38 1   
    33    18    19 1   
    34    19    39 1   
    35    19    40 1   
    36    19    41 1   
    37    20    21 ar  
    38    20    42 1   
    39    21    22 ar  
    40    21    43 1   
    41    22    23 1   
    42    23    24 2   
    43    23    28 1   
    44    24    25 1   
    45    25    26 1   
    46    25    44 1   
    47    25    45 1   
    48    26    27 1   
    49    26    46 1   
    50    26    47 1   
    51    27    28 1   
    52    27    48 1   
    53    28    29 2   
@<TRIPOS>SUBSTRUCTURE
     1 HGF         1 TEMP              0 ****  ****    0 ROOT
