@<TRIPOS>MOLECULE
HGP
  124   123     1     0     0
SMALL
bcc


@<TRIPOS>ATOM
      1 O11          0.0000     0.0000     0.0000 o          1 HGP      -0.597000
      2 C11          1.2240     0.0000     0.0000 c          1 HGP       0.715100
      3 C12          2.0700     0.0000     1.2520 c3         1 HGP      -0.087400
      4 C13          1.2240     0.0320     2.5240 c3         1 HGP      -0.018400
      5 C14          2.0160    -0.0100     3.8370 c3         1 HGP      -0.021400
      6 C15          1.1430     0.0940     5.0880 c3         1 HGP      -0.016400
      7 C16          1.9940     0.0650     6.3600 c3         1 HGP      -0.020400
      8 C17          1.1810     0.2460     7.6450 c3         1 HGP      -0.022400
      9 C18          1.9880     0.2840     8.9480 c3         1 HGP      -0.021400
     10 C19          1.1310     0.4960    10.1970 c3         1 HGP      -0.021400
     11 C20          1.9930     0.5630    11.4580 c3         1 HGP      -0.024400
     12 C21          1.1370     0.8110    12.7030 c3         1 HGP      -0.022400
     13 C22          1.9960     0.8500    13.9680 c3         1 HGP      -0.024400
     14 C23          1.1840     1.0650    15.2500 c3         1 HGP      -0.021400
     15 C24          2.0530     1.1810    16.5060 c3         1 HGP      -0.022400
     16 C25          1.2400     1.3930    17.7860 c3         1 HGP      -0.025400
     17 C26          2.0950     1.5410    19.0350 c3         1 HGP       0.011900
     18 O3           2.0290     0.0030    -1.1020 os         1 HGP      -0.398900
     19 C3           1.3530     0.0060    -2.3630 c3         1 HGP       0.209400
     20 C2           2.3880     0.0090    -3.4790 c3         1 HGP       0.164100
     21 C1           1.7280    -0.0170    -4.8530 c3         1 HGP       0.207400
     22 O3P          0.9370    -1.1940    -4.9860 os         1 HGP      -0.458200
     23 P            0.1420    -1.4270    -6.3730 p5         1 HGP       0.864800
     24 O2           3.1960    -1.1620    -3.3360 os         1 HGP      -0.389900
     25 C31          4.1970    -1.3030    -4.2530 c          1 HGP       0.717100
     26 O31          4.4500    -0.5250    -5.1620 o          1 HGP      -0.568000
     27 C32          4.9290    -2.6010    -3.9940 c3         1 HGP      -0.085400
     28 C33          6.3960    -2.5730    -4.4280 c3         1 HGP      -0.013400
     29 C34          7.2690    -1.5870    -3.6420 c3         1 HGP      -0.030400
     30 C35          8.7280    -1.5390    -4.1000 c3         1 HGP      -0.019400
     31 C36          9.5280    -0.5140    -3.2930 c3         1 HGP      -0.024400
     32 C37         10.9950    -0.4890    -3.7260 c3         1 HGP      -0.025400
     33 C38         11.8030     0.5130    -2.8980 c3         1 HGP      -0.022400
     34 C39         13.2630     0.5600    -3.3550 c3         1 HGP      -0.025400
     35 C40         14.1120     1.5710    -2.5790 c3         1 HGP      -0.024400
     36 C42         15.5870     1.5660    -2.9860 c3         1 HGP      -0.022400
     37 C43         16.4010     2.5400    -2.1310 c3         1 HGP      -0.026400
     38 C44         17.8690     2.5610    -2.5560 c3         1 HGP      -0.027400
     39 O1          -0.7270    -2.7630    -6.0860 o          1 HGP      -0.598000
     40 O4           1.0050    -1.5110    -7.6000 o          1 HGP      -0.598000
     41 O5          -0.9470    -0.2280    -6.3810 os         1 HGP      -0.469200
     42 C4          -1.8170    -0.0530    -5.2760 c3         1 HGP       0.271400
     43 C5          -2.7310     1.1290    -5.5320 c3         1 HGP      -0.011200
     44 N1          -3.6130     1.3300    -4.3550 n4         1 HGP      -0.058800
     45 C6          -2.7830     1.5760    -3.0870 c3         1 HGP       0.068100
     46 C7          -4.5330     2.5410    -4.5660 c3         1 HGP       0.068100
     47 C8          -4.4940     0.0970    -4.1180 c3         1 HGP       0.068100
     48 C9          18.6740     3.5520    -1.7310 c3         1 HGP       0.008900
     49 H121         2.6830    -0.8930     1.2610 hc         1 HGP       0.040200
     50 H122         2.7160     0.8690     1.2380 hc         1 HGP       0.040200
     51 H131         0.6310     0.9390     2.5150 hc         1 HGP       0.019200
     52 H132         0.5500    -0.8160     2.5060 hc         1 HGP       0.019200
     53 H141         2.5670    -0.9420     3.8770 hc         1 HGP       0.011200
     54 H142         2.7230     0.8100     3.8400 hc         1 HGP       0.011200
     55 H151         0.4490    -0.7380     5.1070 hc         1 HGP       0.012200
     56 H152         0.5840     1.0210     5.0550 hc         1 HGP       0.012200
     57 H161         2.7300     0.8580     6.3010 hc         1 HGP       0.011200
     58 H162         2.5120    -0.8850     6.4080 hc         1 HGP       0.011200
     59 H171         0.4710    -0.5690     7.7120 hc         1 HGP       0.008200
     60 H172         0.6260     1.1730     7.5660 hc         1 HGP       0.008200
     61 H181         2.7100     1.0890     8.8840 hc         1 HGP       0.010700
     62 H182         2.5220    -0.6530     9.0510 hc         1 HGP       0.010700
     63 H191         0.5790     1.4230    10.0950 hc         1 HGP       0.012200
     64 H192         0.4300    -0.3250    10.2890 hc         1 HGP       0.012200
     65 H201         2.7110     1.3680    11.3550 hc         1 HGP       0.013200
     66 H202         2.5250    -0.3740    11.5740 hc         1 HGP       0.013200
     67 H211         0.6200     1.7570    12.5950 hc         1 HGP       0.012200
     68 H212         0.4060     0.0160    12.7940 hc         1 HGP       0.012200
     69 H221         2.7140     1.6550    13.8740 hc         1 HGP       0.011200
     70 H222         2.5330    -0.0870    14.0510 hc         1 HGP       0.011200
     71 H231         0.5040     0.2310    15.3740 hc         1 HGP       0.009700
     72 H232         0.6040     1.9740    15.1440 hc         1 HGP       0.009700
     73 H241         2.7310     2.0170    16.3840 hc         1 HGP       0.010700
     74 H242         2.6340     0.2730    16.6110 hc         1 HGP       0.010700
     75 H251         0.6400     2.2880    17.6700 hc         1 HGP       0.008200
     76 H252         0.5770     0.5470    17.9190 hc         1 HGP       0.008200
     77 H261         1.4540     1.6820    19.8960 hc         1 HGP       0.000033
     78 H262         2.6920     0.6470    19.1710 hc         1 HGP       0.000033
     79 H263         2.7480     2.3980    18.9260 hc         1 HGP       0.000033
     80 H31          0.7330     0.8920    -2.4410 h1         1 HGP       0.015200
     81 H32          0.7330    -0.8780    -2.4450 h1         1 HGP       0.015200
     82 H2           3.0110     0.8910    -3.3930 h1         1 HGP       0.015700
     83 H11          1.0960     0.8560    -4.9650 h1         1 HGP       0.005700
     84 H12          2.4930    -0.0080    -5.6200 h1         1 HGP       0.005700
     85 H321         4.8870    -2.8180    -2.9340 hc         1 HGP       0.040700
     86 H322         4.4250    -3.3960    -4.5310 hc         1 HGP       0.040700
     87 H331         6.8090    -3.5680    -4.3080 hc         1 HGP       0.020700
     88 H332         6.4380    -2.3070    -5.4780 hc         1 HGP       0.020700
     89 H341         6.8450    -0.5960    -3.7430 hc         1 HGP       0.011200
     90 H342         7.2470    -1.8670    -2.5960 hc         1 HGP       0.011200
     91 H351         8.7620    -1.2710    -5.1490 hc         1 HGP       0.013700
     92 H352         9.1730    -2.5190    -3.9700 hc         1 HGP       0.013700
     93 H361         9.4730    -0.7690    -2.2420 hc         1 HGP       0.011700
     94 H362         9.0970     0.4690    -3.4420 hc         1 HGP       0.011700
     95 H371        11.4190    -1.4780    -3.6000 hc         1 HGP       0.013700
     96 H372        11.0510    -0.2100    -4.7720 hc         1 HGP       0.013700
     97 H381        11.3660     1.4980    -3.0060 hc         1 HGP       0.011200
     98 H382        11.7680     0.2210    -1.8550 hc         1 HGP       0.011200
     99 H391        13.6970    -0.4250    -3.2310 hc         1 HGP       0.011200
    100 H392        13.2890     0.8200    -4.4060 hc         1 HGP       0.011200
    101 H401        13.7090     2.5620    -2.7470 hc         1 HGP       0.009700
    102 H402        14.0430     1.3420    -1.5220 hc         1 HGP       0.009700
    103 H421        15.6690     1.8550    -4.0270 hc         1 HGP       0.012700
    104 H422        15.9860     0.5660    -2.8620 hc         1 HGP       0.012700
    105 H431        16.3370     2.2380    -1.0920 hc         1 HGP       0.012200
    106 H432        15.9870     3.5350    -2.2360 hc         1 HGP       0.012200
    107 H441        17.9310     2.8390    -3.6010 hc         1 HGP       0.010700
    108 H442        18.2890     1.5710    -2.4270 hc         1 HGP       0.010700
    109 H41         -1.2330     0.1290    -4.3820 h1         1 HGP       0.000700
    110 H42         -2.4130    -0.9480    -5.1410 h1         1 HGP       0.000700
    111 H51         -2.1350     2.0190    -5.6940 hx         1 HGP       0.071700
    112 H52         -3.3360     0.9350    -6.4090 hx         1 HGP       0.071700
    113 H61         -3.3930     2.0840    -2.3500 hx         1 HGP       0.061256
    114 H62         -2.4470     0.6270    -2.6860 hx         1 HGP       0.061256
    115 H63         -1.9250     2.1900    -3.3310 hx         1 HGP       0.061256
    116 H71         -5.1810     2.6560    -3.7050 hx         1 HGP       0.061256
    117 H72         -3.9320     3.4340    -4.6870 hx         1 HGP       0.061256
    118 H73         -5.1350     2.3870    -5.4530 hx         1 HGP       0.061256
    119 H81         -4.8730    -0.2640    -5.0670 hx         1 HGP       0.061256
    120 H82         -3.9070    -0.6810    -3.6450 hx         1 HGP       0.061256
    121 H83         -5.3240     0.3640    -3.4760 hx         1 HGP       0.061256
    122 H91         18.2680     4.5470    -1.8660 hc         1 HGP      -0.000300
    123 H92         18.6190     3.2790    -0.6840 hc         1 HGP      -0.000300
    124 H93         19.7070     3.5360    -2.0540 hc         1 HGP      -0.000300
@<TRIPOS>BOND
     1     1     2 2   
     2     2     3 1   
     3     2    18 1   
     4     3     4 1   
     5     3    49 1   
     6     3    50 1   
     7     4     5 1   
     8     4    51 1   
     9     4    52 1   
    10     5     6 1   
    11     5    53 1   
    12     5    54 1   
    13     6     7 1   
    14     6    55 1   
    15     6    56 1   
    16     7     8 1   
    17     7    57 1   
    18     7    58 1   
    19     8     9 1   
    20     8    59 1   
    21     8    60 1   
    22     9    10 1   
    23     9    61 1   
    24     9    62 1   
    25    10    11 1   
    26    10    63 1   
    27    10    64 1   
    28    11    12 1   
    29    11    65 1   
    30    11    66 1   
    31    12    13 1   
    32    12    67 1   
    33    12    68 1   
    34    13    14 1   
    35    13    69 1   
    36    13    70 1   
    37    14    15 1   
    38    14    71 1   
    39    14    72 1   
    40    15    16 1   
    41    15    73 1   
    42    15    74 1   
    43    16    17 1   
    44    16    75 1   
    45    16    76 1   
    46    17    77 1   
    47    17    78 1   
    48    17    79 1   
    49    18    19 1   
    50    19    20 1   
    51    19    80 1   
    52    19    81 1   
    53    20    21 1   
    54    20    24 1   
    55    20    82 1   
    56    21    22 1   
    57    21    83 1   
    58    21    84 1   
    59    22    23 1   
    60    23    39 1   
    61    23    40 1   
    62    23    41 1   
    63    24    25 1   
    64    25    26 2   
    65    25    27 1   
    66    27    28 1   
    67    27    85 1   
    68    27    86 1   
    69    28    29 1   
    70    28    87 1   
    71    28    88 1   
    72    29    30 1   
    73    29    89 1   
    74    29    90 1   
    75    30    31 1   
    76    30    91 1   
    77    30    92 1   
    78    31    32 1   
    79    31    93 1   
    80    31    94 1   
    81    32    33 1   
    82    32    95 1   
    83    32    96 1   
    84    33    34 1   
    85    33    97 1   
    86    33    98 1   
    87    34    35 1   
    88    34    99 1   
    89    34   100 1   
    90    35    36 1   
    91    35   101 1   
    92    35   102 1   
    93    36    37 1   
    94    36   103 1   
    95    36   104 1   
    96    37    38 1   
    97    37   105 1   
    98    37   106 1   
    99    38    48 1   
   100    38   107 1   
   101    38   108 1   
   102    41    42 1   
   103    42    43 1   
   104    42   109 1   
   105    42   110 1   
   106    43    44 1   
   107    43   111 1   
   108    43   112 1   
   109    44    45 1   
   110    44    46 1   
   111    44    47 1   
   112    45   113 1   
   113    45   114 1   
   114    45   115 1   
   115    46   116 1   
   116    46   117 1   
   117    46   118 1   
   118    47   119 1   
   119    47   120 1   
   120    47   121 1   
   121    48   122 1   
   122    48   123 1   
   123    48   124 1   
@<TRIPOS>SUBSTRUCTURE
     1 HGP         1 TEMP              0 ****  ****    0 ROOT
