@<TRIPOS>MOLECULE
HGS
   39    38     1     0     0
SMALL
bcc


@<TRIPOS>ATOM
      1 C1           0.0000     0.0000     0.0000 c          1 HGS       0.961600
      2 N1           1.9960    -1.1990    -0.6930 nz         1 HGS       0.080400
      3 C2           7.1810     0.9370     4.5570 c          1 HGS       0.551100
      4 N2           5.3650     0.2270     3.1130 ns         1 HGS      -0.165900
      5 C4          10.9520     2.4600     7.3030 c          1 HGS       0.981600
      6 O11         -0.6720     1.1440     0.2080 o          1 HGS      -0.824800
      7 O12         -0.6050    -1.0310    -0.1810 o          1 HGS      -0.824800
      8 O41         11.5920     2.5840     8.4770 o          1 HGS      -0.889800
      9 O42         11.4400     2.9210     6.2970 o          1 HGS      -0.889800
     10 CA1          1.5070     0.0000     0.0000 c3         1 HGS      -0.205500
     11 CA2          5.8540     0.2260     4.4940 c3         1 HGS      -0.034300
     12 CA3          9.1140     1.7510     5.7980 c3         1 HGS       0.115000
     13 CA4          9.6250     1.7500     7.2390 c3         1 HGS      -0.110400
     14 CB1          2.0170     0.0000     1.4420 c3         1 HGS      -0.009400
     15 CB2          6.0240    -1.2160     4.9740 c3         1 HGS       0.086700
     16 CD1          4.0440     0.1250     2.8650 c          1 HGS       0.561100
     17 OE1          3.2600     0.0330     3.7860 o          1 HGS      -0.603100
     18 CG1          3.5410     0.1250     1.4450 c3         1 HGS      -0.114400
     19 SG2          4.4260    -2.0710     4.8980 sh         1 HGS      -0.381900
     20 HN1          1.8680    -2.0000    -0.1060 hn         1 HGS       0.209800
     21 HN1A         1.4850    -1.3240    -1.5440 hn         1 HGS       0.209800
     22 HN2          6.0130     0.3010     2.3540 hn         1 HGS       0.193500
     23 HN3          7.4100     0.6970     6.5710 hn         1 HGS       0.162500
     24 HA1          1.8680     0.8850    -0.5110 hx         1 HGS       0.083700
     25 HA2          5.1400     0.7370     5.1290 h1         1 HGS       0.079700
     26 HA3          8.5400     2.3430     5.0950 h1         1 HGS       0.031700
     27 HA3A         9.4500     0.8870     5.2370 h1         1 HGS       0.031700
     28 HA4          9.7460     0.7290     7.5790 hc         1 HGS       0.010700
     29 HA4A         8.9120     2.2600     7.8750 hc         1 HGS       0.010700
     30 HB1          1.7300    -0.9250     1.9270 hc         1 HGS       0.070700
     31 HB1A         1.5850     0.8370     1.9780 hc         1 HGS       0.070700
     32 HB2          6.7380    -1.7260     4.3390 h1         1 HGS       0.039200
     33 HB2A         6.3850    -1.2160     5.9960 h1         1 HGS       0.039200
     34 HG1          3.9730    -0.7110     0.9090 hc         1 HGS       0.014200
     35 HG1A         3.8280     1.0510     0.9600 hc         1 HGS       0.014200
     36 HSG2         4.5040    -3.2140     5.5680 hs         1 HGS       0.160800
     37 N3           7.8240     1.0600     5.7350 ns         1 HGS      -0.261900
     38 H13          2.9710    -1.0940    -0.8950 hn         1 HGS       0.209800
     39 O2           7.6710     1.3990     3.5480 o          1 HGS      -0.666100
@<TRIPOS>BOND
     1     1     6 1   
     2     1     7 1   
     3     1    10 1   
     4     2    10 1   
     5     2    20 1   
     6     2    21 1   
     7     2    38 1   
     8     3    11 1   
     9     3    37 1   
    10     3    39 2   
    11     4    11 1   
    12     4    16 1   
    13     4    22 1   
    14     5     8 1   
    15     5     9 1   
    16     5    13 1   
    17    10    14 1   
    18    10    24 1   
    19    11    15 1   
    20    11    25 1   
    21    12    13 1   
    22    12    26 1   
    23    12    27 1   
    24    12    37 1   
    25    13    28 1   
    26    13    29 1   
    27    14    18 1   
    28    14    30 1   
    29    14    31 1   
    30    15    19 1   
    31    15    32 1   
    32    15    33 1   
    33    16    17 2   
    34    16    18 1   
    35    18    34 1   
    36    18    35 1   
    37    19    36 1   
    38    23    37 1   
@<TRIPOS>SUBSTRUCTURE
     1 HGS         1 TEMP              0 ****  ****    0 ROOT
