@<TRIPOS>MOLECULE
HGT
   41    41     1     0     0
SMALL
bcc


@<TRIPOS>ATOM
      1 O2          0.7700    0.5800    0.6800 oh        1 HGT     -0.574800
      2 C10         1.9930    0.2270    0.0690 c3        1 HGT      0.077100
      3 C23         3.0160    0.2730    1.2300 c3        1 HGT      0.132100
      4 O4          3.3360    1.6140    1.5340 oh        1 HGT     -0.617800
      5 C25         4.3670   -0.4150    0.8660 c3        1 HGT      0.087500
      6 N2          5.1470    0.3840   -0.1150 n4        1 HGT     -0.845600
      7 C2          1.8930   -1.1590   -0.5990 c3        1 HGT      0.084100
      8 C26         1.0420   -2.1600    0.1970 c3        1 HGT      0.104400
      9 O5          1.7260   -3.4000    0.2180 oh        1 HGT     -0.643800
     10 O1          3.2190   -1.6610   -0.8450 os        1 HGT     -0.409600
     11 C24         3.9590   -1.8270    0.3580 c3        1 HGT      0.314300
     12 N1          5.0620   -2.8020    0.0710 n4        1 HGT     -0.758000
     13 C22         5.8190   -2.5870   -1.2010 c3        1 HGT      0.069800
     14 C21         7.3070   -2.2540   -0.9710 c3        1 HGT      0.169400
     15 O3          7.4430   -1.3930    0.1180 os        1 HGT     -0.600500
     16 SNN         8.9170   -0.4900    0.5720 s6        1 HGT      0.923800
     17 O36         9.5180   -0.9940   -0.8770 oh        1 HGT     -0.668367
     18 O35         7.9490    0.7980    0.0990 oh        1 HGT     -0.668367
     19 O34        10.1680    0.6480    0.5230 oh        1 HGT     -0.668367
     20 HO2         0.1540    0.8580   -0.0140 ho        1 HGT      0.450000
     21 H10         2.2830    0.9890   -0.7090 h1        1 HGT      0.066700
     22 H23         2.5840   -0.2490    2.1330 h1        1 HGT      0.110700
     23 HO4         2.5380    2.0290    1.9030 ho        1 HGT      0.482000
     24 H25         4.9950   -0.4930    1.8040 hx        1 HGT      0.138700
     25 HN21        5.2610    1.3400    0.2570 hn        1 HGT      0.484467
     26 HN22        6.0960   -0.0270   -0.2600 hn        1 HGT      0.484467
     27 H2          1.4920   -1.0570   -1.6510 h1        1 HGT      0.129700
     28 H261        0.9260   -1.8210    1.2640 h1        1 HGT      0.085200
     29 H262        0.0250   -2.2400   -0.2670 h1        1 HGT      0.085200
     30 HO5         1.1420   -4.0740   -0.1540 ho        1 HGT      0.453000
     31 H24         3.3270   -2.3020    1.1810 hx        1 HGT      0.158700
     32 HN1         4.6170   -3.7330    0.0370 hn        1 HGT      0.481300
     33 H221        5.3120   -1.7790   -1.7960 hx        1 HGT      0.113200
     34 H222        5.7600   -3.5370   -1.8110 hx        1 HGT      0.113200
     35 H211        7.6890   -1.7880   -1.9220 h1        1 HGT      0.081200
     36 H212        7.8830   -3.1990   -0.7690 h1        1 HGT      0.081200
     37 H36        10.2900   -0.5140   -1.2170 ho        1 HGT      0.509333
     38 H35         8.4330    1.6000   -0.1490 ho        1 HGT      0.509333
     39 H34        10.7620    0.7750    1.2550 ho        1 HGT      0.509333
     40 H231        4.6460    0.4310   -1.0070 hn        1 HGT      0.484467
     41 H12         5.7300   -2.7690    0.8570 hn        1 HGT      0.481300
@<TRIPOS>BOND
     1    1    2 1   
     2    1   20 1   
     3    2    3 1   
     4    2    7 1   
     5    2   21 1   
     6    3    4 1   
     7    3    5 1   
     8    3   22 1   
     9    4   23 1   
    10    5    6 1   
    11    5   11 1   
    12    5   24 1   
    13    6   25 1   
    14    6   26 1   
    15    6   40 1   
    16    7    8 1   
    17    7   10 1   
    18    7   27 1   
    19    8    9 1   
    20    8   28 1   
    21    8   29 1   
    22    9   30 1   
    23   10   11 1   
    24   11   12 1   
    25   11   31 1   
    26   12   13 1   
    27   12   32 1   
    28   12   41 1   
    29   13   14 1   
    30   13   33 1   
    31   13   34 1   
    32   14   15 1   
    33   14   35 1   
    34   14   36 1   
    35   15   16 1   
    36   16   17 1   
    37   16   18 1   
    38   16   19 1   
    39   17   37 1   
    40   18   38 1   
    41   19   39 1   
@<TRIPOS>SUBSTRUCTURE
     1 HGT         1 TEMP              0 ****  ****    0 ROOT
