@<TRIPOS>MOLECULE
molecule
   11    10     1     0     0
SMALL
bcc


@<TRIPOS>ATOM
      1 O            0.0000     0.0000     0.0000 oh         1 HGU      -0.251300
      2 N            1.4150     0.0000     0.0000 nu         1 HGU      -0.672700
      3 C            2.1030     0.0000     1.1880 c2         1 HGU       0.703100
      4 NH1          1.4530     0.0000     2.3180 n2         1 HGU      -0.731100
      5 NH2          3.4780    -0.0000     1.1880 nz         1 HGU      -0.803600
      6 HO          -0.3140    -0.0010    -0.8890 ho         1 HGU       0.435000
      7 HN           1.9150     0.0000    -0.8670 hn         1 HGU       0.468800
      8 HN1          1.9530     0.0000     3.1850 hn         1 HGU       0.441400
      9 HN21         3.8110    -0.8120     1.6690 hn         1 HGU       0.470467
     10 HN22         3.8110    -0.0110     0.2440 hn         1 HGU       0.470467
     11 HH23         3.8110     0.8220     1.6500 hn         1 HGU       0.470467
@<TRIPOS>BOND
     1     1     2 1
     2     1     6 1
     3     2     3 1
     4     2     7 1
     5     3     4 2
     6     3     5 1
     7     4     8 1
     8     5     9 1
     9     5    10 1
    10    11     5 1
@<TRIPOS>SUBSTRUCTURE
     1 HGU         1 TEMP              0 ****  ****    0 ROOT
