@<TRIPOS>MOLECULE
molecule
   47    49     1     0     0
SMALL
bcc


@<TRIPOS>ATOM
      1 PA           0.0000     0.0000     0.0000 p5         1 HGV       1.434800
      2 O1A          1.6100     0.0000     0.0000 o          1 HGV      -0.851000
      3 O2A         -0.4930     0.0000     1.3950 o          1 HGV      -0.851000
      4 O3A         -0.5360     1.3150    -0.7590 os         1 HGV      -0.722800
      5 O5'         -0.5370    -1.3140    -0.7590 os         1 HGV      -0.590200
      6 PB          -0.6270     2.8740    -0.3670 p5         1 HGV       1.279600
      7 O2B          0.7320     3.3930    -0.0910 o          1 HGV      -0.793000
      8 O1B         -1.5430     3.0460     0.9450 o          1 HGV      -0.793000
      9 C3B         -1.3640     3.8060    -1.7490 c3         1 HGV      -0.401100
     10 C4B         -2.5840     3.0510    -2.2800 c3         1 HGV      -0.022100
     11 PG          -1.8760     5.4550    -1.1640 p5         1 HGV       1.101700
     12 O1G         -0.5920     6.2500    -0.6070 o          1 HGV      -0.807833
     13 O2G         -2.5280     6.2790    -2.3860 o          1 HGV      -0.807833
     14 O3G         -2.8740     5.3080    -0.0820 o          1 HGV      -0.807833
     15 C5'         -0.3180    -2.6390    -0.2700 c3         1 HGV       0.241400
     16 C4'         -0.9570    -3.6480    -1.2270 c3         1 HGV       0.133100
     17 O4'         -0.2470    -3.6760    -2.4840 os         1 HGV      -0.373600
     18 C1'         -0.5460    -4.9360    -3.1070 c3         1 HGV       0.258800
     19 N9           0.6180    -5.4090    -3.8590 na         1 HGV      -0.260000
     20 C4           0.6020    -6.2820    -4.9180 ca         1 HGV       0.458800
     21 N3          -0.3470    -6.9410    -5.5750 nb         1 HGV      -0.824000
     22 C2          -0.0390    -7.7310    -6.5830 ca         1 HGV       0.584900
     23 N1           1.2040    -7.9090    -6.9890 nb         1 HGV      -0.779000
     24 C6           2.2190    -7.2910    -6.3940 ca         1 HGV       0.597200
     25 N6           3.5190    -7.4850    -6.8270 nv         1 HGV      -1.057500
     26 C5           1.9410    -6.4380    -5.3130 ca         1 HGV      -0.166200
     27 N7           2.6920    -5.6660    -4.4900 nc         1 HGV      -0.617100
     28 C8           1.9180    -5.0570    -3.6400 cd         1 HGV       0.381700
     29 C2'         -0.8840    -5.9340    -1.9820 c3         1 HGV      -0.159400
     30 C3'         -0.7970    -5.0910    -0.6840 c3         1 HGV       0.098100
     31 O3'         -1.8590    -5.4250     0.2120 oh         1 HGV      -0.596800
     32 H3          -0.6340     3.9150    -2.5420 hc         1 HGV       0.049700
     33 H4          -3.2660     3.7510    -2.7480 hc         1 HGV       0.000367
     34 H5          -3.0850     2.5520    -1.4590 hc         1 HGV       0.000367
     35 H6          -2.2650     2.3160    -3.0080 hc         1 HGV       0.000367
     36 H9          -0.7650    -2.7410     0.7120 h1         1 HGV       0.031200
     37 H10          0.7460    -2.8290    -0.2040 h1         1 HGV       0.031200
     38 H11         -2.0040    -3.4180    -1.3890 h1         1 HGV       0.072700
     39 H12         -1.3980    -4.8260    -3.7670 h2         1 HGV       0.074700
     40 H13         -0.8360    -8.2540    -7.0970 h5         1 HGV       0.011100
     41 H14          4.0670    -8.2300    -6.4460 hn         1 HGV       0.402300
     42 H15          3.9010    -6.8970    -7.5410 hn         1 HGV       0.402300
     43 H16          2.2550    -4.3710    -2.8720 h5         1 HGV       0.091800
     44 H17         -0.1570    -6.7370    -1.9590 hc         1 HGV       0.053700
     45 H18         -1.8860    -6.3250    -2.1120 hc         1 HGV       0.053700
     46 H19          0.1690    -5.2160    -0.2110 h1         1 HGV       0.048700
     47 H20         -1.5330    -5.9990     0.8850 ho         1 HGV       0.384000
@<TRIPOS>BOND
     1    22    23 ar
     2    22    21 ar
     3    23    24 ar
     4    21    20 ar
     5    24    25 1
     6    24    26 ar
     7    20    26 ar
     8    20    19 1
     9    29    18 1
    10    29    30 1
    11    18    19 1
    12    18    17 1
    13    26    27 1
    14    19    28 1
    15    31    30 1
    16    30    16 1
    17    17    16 1
    18    27    28 2
    19    16    15 1
    20     7     6 1
    21    15     5 1
    22     5     1 1
    23     6     4 1
    24     6     8 1
    25     6     9 1
    26     4     1 1
    27     9    10 1
    28     9    11 1
    29     1     3 1
    30     1     2 1
    31    14    11 1
    32    11    12 1
    33    11    13 1
    34     9    32 1
    35    10    33 1
    36    10    34 1
    37    10    35 1
    38    15    36 1
    39    15    37 1
    40    16    38 1
    41    18    39 1
    42    22    40 1
    43    25    41 1
    44    25    42 1
    45    28    43 1
    46    29    44 1
    47    29    45 1
    48    30    46 1
    49    31    47 1
@<TRIPOS>SUBSTRUCTURE
     1 HGV         1 TEMP              0 ****  ****    0 ROOT
