@<TRIPOS>MOLECULE
HGX
  124   123     1     0     0
SMALL
bcc


@<TRIPOS>ATOM
      1 O11          0.0000     0.0000     0.0000 o          1 HGX      -0.568000
      2 C11          1.2240     0.0000     0.0000 c          1 HGX       0.701100
      3 C12          2.0620     0.0000     1.2550 c3         1 HGX      -0.090400
      4 C13          1.2150    -0.0700     2.5230 c3         1 HGX      -0.018400
      5 C14          2.0660    -0.0510     3.7970 c3         1 HGX      -0.023400
      6 C15          1.1910    -0.1520     5.0490 c3         1 HGX      -0.020400
      7 C16          2.0390    -0.0950     6.3220 c3         1 HGX      -0.021400
      8 C17          1.2090    -0.1020     7.6080 c3         1 HGX      -0.023400
      9 C18          2.0050    -0.1080     8.9170 c3         1 HGX      -0.020400
     10 C19          1.1230    -0.1710    10.1670 c3         1 HGX      -0.018400
     11 C20          1.9720    -0.1660    11.4420 c3         1 HGX      -0.024400
     12 C21          1.1430    -0.2620    12.7260 c3         1 HGX      -0.025400
     13 C22          1.9840    -0.1840    13.9990 c3         1 HGX      -0.024400
     14 C23          1.1180    -0.2960    15.2450 c3         1 HGX       0.008900
     15 O3           2.0270     0.0020    -1.1060 os         1 HGX      -0.408900
     16 C3           1.3510     0.0050    -2.3590 c3         1 HGX       0.210400
     17 C2           2.3850     0.0070    -3.4780 c3         1 HGX       0.160100
     18 C1           1.7210    -0.0210    -4.8500 c3         1 HGX       0.257400
     19 O3P          0.9310    -1.1970    -4.9820 os         1 HGX      -0.518200
     20 O2           3.1930    -1.1670    -3.3360 os         1 HGX      -0.419900
     21 C31          4.1940    -1.3070    -4.2540 c          1 HGX       0.725100
     22 O31          4.7910    -0.3950    -4.8100 o          1 HGX      -0.552000
     23 C32          4.4570    -2.7810    -4.4700 c3         1 HGX      -0.081400
     24 C33          4.9310    -3.0740    -5.8930 c3         1 HGX      -0.039400
     25 C34          5.1360    -4.5650    -6.1720 c3         1 HGX      -0.007400
     26 C35          5.5400    -4.8630    -7.6170 c3         1 HGX      -0.030400
     27 C36          5.7080    -6.3670    -7.8460 c3         1 HGX      -0.019400
     28 C37          6.1450    -6.6650    -9.2830 c3         1 HGX      -0.024400
     29 C38          6.2760    -8.1710    -9.5200 c3         1 HGX      -0.022400
     30 C39          6.7240    -8.5270   -10.9410 c3         1 HGX      -0.024400
     31 C40          6.8790   -10.0330   -11.1700 c3         1 HGX      -0.018400
     32 C42          7.3400   -10.3280   -12.6000 c3         1 HGX      -0.024400
     33 C43          7.5410   -11.8210   -12.8790 c3         1 HGX      -0.023400
     34 C44          8.0250   -12.1150   -14.3020 c3         1 HGX      -0.022400
     35 C45          8.1390   -13.6210   -14.5470 c3         1 HGX      -0.024400
     36 C46          8.5850   -13.9190   -15.9790 c3         1 HGX      -0.026400
     37 C47          8.6670   -15.4250   -16.2340 c3         1 HGX      -0.027400
     38 C48          9.0780   -15.7250   -17.6670 c3         1 HGX       0.008900
     39 O1           1.3180    -1.6140    -7.4550 o          1 HGX      -0.620000
     40 P1           0.1320    -1.4320    -6.3680 p5         1 HGX       0.890800
     41 O4          -0.8630    -0.3640    -6.7200 o          1 HGX      -0.620000
     42 O5          -0.4880    -2.9160    -6.1890 os         1 HGX      -0.447200
     43 C4           0.3590    -4.0030    -5.8560 c3         1 HGX       0.270400
     44 C5          -0.4630    -5.2720    -5.7490 c3         1 HGX      -0.011200
     45 N1           0.4230    -6.4000    -5.3640 n4         1 HGX      -0.056800
     46 C6           1.1180    -6.1130    -4.0260 c3         1 HGX       0.064100
     47 C7          -0.3820    -7.6980    -5.2160 c3         1 HGX       0.064100
     48 C8           1.5070    -6.6290    -6.4260 c3         1 HGX       0.064100
     49 H121         2.7280    -0.8540     1.2320 hc         1 HGX       0.036200
     50 H122         2.6550     0.9060     1.2800 hc         1 HGX       0.036200
     51 H131         0.5400     0.7770     2.5400 hc         1 HGX       0.023200
     52 H132         0.6320    -0.9830     2.5050 hc         1 HGX       0.023200
     53 H141         2.7540    -0.8870     3.7760 hc         1 HGX       0.011200
     54 H142         2.6300     0.8730     3.8330 hc         1 HGX       0.011200
     55 H151         0.4840     0.6690     5.0560 hc         1 HGX       0.013700
     56 H152         0.6470    -1.0890     5.0270 hc         1 HGX       0.013700
     57 H161         2.6360     0.8090     6.3000 hc         1 HGX       0.009700
     58 H162         2.7040    -0.9500     6.3340 hc         1 HGX       0.009700
     59 H171         0.5740     0.7760     7.6040 hc         1 HGX       0.009200
     60 H172         0.5750    -0.9800     7.5950 hc         1 HGX       0.009200
     61 H181         2.6050     0.7930     8.9620 hc         1 HGX       0.010200
     62 H182         2.6670    -0.9660     8.9170 hc         1 HGX       0.010200
     63 H191         0.5300    -1.0780    10.1380 hc         1 HGX       0.012200
     64 H192         0.4610     0.6860    10.1780 hc         1 HGX       0.012200
     65 H201         2.6550    -1.0070    11.4060 hc         1 HGX       0.010200
     66 H202         2.5500     0.7490    11.4700 hc         1 HGX       0.010200
     67 H211         0.6060    -1.2030    12.7220 hc         1 HGX       0.011200
     68 H212         0.4230     0.5480    12.7350 hc         1 HGX       0.011200
     69 H221         2.7070    -0.9910    13.9970 hc         1 HGX       0.010200
     70 H222         2.5100     0.7630    14.0190 hc         1 HGX       0.010200
     71 H231         1.7440    -0.2350    16.1270 hc         1 HGX       0.000367
     72 H232         0.3970     0.5120    15.2570 hc         1 HGX       0.000367
     73 H233         0.5960    -1.2460    15.2370 hc         1 HGX       0.000367
     74 H31          0.7320     0.8900    -2.4360 h1         1 HGX       0.025200
     75 H32          0.7320    -0.8800    -2.4390 h1         1 HGX       0.025200
     76 H2           3.0090     0.8890    -3.3950 h1         1 HGX       0.027700
     77 H11          1.0890     0.8520    -4.9610 h1         1 HGX       0.014200
     78 H12          2.4840    -0.0120    -5.6190 h1         1 HGX       0.014200
     79 H321         3.5440    -3.3330    -4.2830 hc         1 HGX       0.019200
     80 H322         5.2170    -3.1090    -3.7710 hc         1 HGX       0.019200
     81 H331         5.8690    -2.5580    -6.0580 hc         1 HGX       0.045700
     82 H332         4.1960    -2.6880    -6.5890 hc         1 HGX       0.045700
     83 H341         5.9090    -4.9380    -5.5120 hc         1 HGX      -0.011800
     84 H342         4.2120    -5.0880    -5.9560 hc         1 HGX      -0.011800
     85 H351         6.4770    -4.3640    -7.8340 hc         1 HGX       0.026700
     86 H352         4.7750    -4.4860    -8.2850 hc         1 HGX       0.026700
     87 H361         6.4560    -6.7480    -7.1620 hc         1 HGX       0.000200
     88 H362         4.7650    -6.8620    -7.6530 hc         1 HGX       0.000200
     89 H371         5.4110    -6.2600    -9.9690 hc         1 HGX       0.018700
     90 H372         7.1030    -6.1920    -9.4680 hc         1 HGX       0.018700
     91 H381         5.3150    -8.6350    -9.3340 hc         1 HGX       0.005200
     92 H382         6.9970    -8.5710    -8.8190 hc         1 HGX       0.005200
     93 H391         7.6760    -8.0470   -11.1340 hc         1 HGX       0.013700
     94 H392         5.9930    -8.1430   -11.6420 hc         1 HGX       0.013700
     95 H401         5.9270   -10.5190   -10.9970 hc         1 HGX       0.009700
     96 H402         7.6100   -10.4250   -10.4740 hc         1 HGX       0.009700
     97 H421         6.5970    -9.9440   -13.2900 hc         1 HGX       0.012700
     98 H422         8.2760    -9.8130   -12.7760 hc         1 HGX       0.012700
     99 H431         6.6000   -12.3330   -12.7200 hc         1 HGX       0.009200
    100 H432         8.2700   -12.2090   -12.1780 hc         1 HGX       0.009200
    101 H441         7.3220   -11.6930   -15.0100 hc         1 HGX       0.013200
    102 H442         8.9950   -11.6570   -14.4480 hc         1 HGX       0.013200
    103 H451         8.8610   -14.0390   -13.8570 hc         1 HGX       0.011700
    104 H452         7.1740   -14.0830   -14.3730 hc         1 HGX       0.011700
    105 H461         9.5600   -13.4780   -16.1460 hc         1 HGX       0.013700
    106 H462         7.8750   -13.4810   -16.6700 hc         1 HGX       0.013700
    107 H471         7.6970   -15.8690   -16.0430 hc         1 HGX       0.009700
    108 H472         9.3940   -15.8590   -15.5590 hc         1 HGX       0.009700
    109 H481         8.3450   -15.3080   -18.3470 hc         1 HGX       0.000700
    110 H482        10.0470   -15.2830   -17.8650 hc         1 HGX       0.000700
    111 H483         9.1340   -16.7970   -17.8090 hc         1 HGX       0.000700
    112 H41          0.8430    -3.8060    -4.9070 h1         1 HGX       0.001700
    113 H42          1.1110    -4.1240    -6.6270 h1         1 HGX       0.001700
    114 H51         -1.2320    -5.1430    -4.9970 hx         1 HGX       0.072700
    115 H52         -0.9250    -5.4860    -6.7060 hx         1 HGX       0.072700
    116 H61          1.9160    -5.3970    -4.1790 hx         1 HGX       0.061589
    117 H62          1.5300    -7.0330    -3.6290 hx         1 HGX       0.061589
    118 H63          0.3980    -5.7080    -3.3250 hx         1 HGX       0.061589
    119 H71          0.2870    -8.5090    -4.9530 hx         1 HGX       0.061589
    120 H72         -0.8760    -7.9260    -6.1520 hx         1 HGX       0.061589
    121 H73         -1.1240    -7.5750    -4.4360 hx         1 HGX       0.061589
    122 H81          2.0850    -7.5080    -6.1690 hx         1 HGX       0.061589
    123 H82          1.0410    -6.7740    -7.3930 hx         1 HGX       0.061589
    124 H83          2.1610    -5.7660    -6.4660 hx         1 HGX       0.061589
@<TRIPOS>BOND
     1     1     2 2   
     2     2     3 1   
     3     2    15 1   
     4     3     4 1   
     5     3    49 1   
     6     3    50 1   
     7     4     5 1   
     8     4    51 1   
     9     4    52 1   
    10     5     6 1   
    11     5    53 1   
    12     5    54 1   
    13     6     7 1   
    14     6    55 1   
    15     6    56 1   
    16     7     8 1   
    17     7    57 1   
    18     7    58 1   
    19     8     9 1   
    20     8    59 1   
    21     8    60 1   
    22     9    10 1   
    23     9    61 1   
    24     9    62 1   
    25    10    11 1   
    26    10    63 1   
    27    10    64 1   
    28    11    12 1   
    29    11    65 1   
    30    11    66 1   
    31    12    13 1   
    32    12    67 1   
    33    12    68 1   
    34    13    14 1   
    35    13    69 1   
    36    13    70 1   
    37    14    71 1   
    38    14    72 1   
    39    14    73 1   
    40    15    16 1   
    41    16    17 1   
    42    16    74 1   
    43    16    75 1   
    44    17    18 1   
    45    17    20 1   
    46    17    76 1   
    47    18    19 1   
    48    18    77 1   
    49    18    78 1   
    50    19    40 1   
    51    20    21 1   
    52    21    22 2   
    53    21    23 1   
    54    23    24 1   
    55    23    79 1   
    56    23    80 1   
    57    24    25 1   
    58    24    81 1   
    59    24    82 1   
    60    25    26 1   
    61    25    83 1   
    62    25    84 1   
    63    26    27 1   
    64    26    85 1   
    65    26    86 1   
    66    27    28 1   
    67    27    87 1   
    68    27    88 1   
    69    28    29 1   
    70    28    89 1   
    71    28    90 1   
    72    29    30 1   
    73    29    91 1   
    74    29    92 1   
    75    30    31 1   
    76    30    93 1   
    77    30    94 1   
    78    31    32 1   
    79    31    95 1   
    80    31    96 1   
    81    32    33 1   
    82    32    97 1   
    83    32    98 1   
    84    33    34 1   
    85    33    99 1   
    86    33   100 1   
    87    34    35 1   
    88    34   101 1   
    89    34   102 1   
    90    35    36 1   
    91    35   103 1   
    92    35   104 1   
    93    36    37 1   
    94    36   105 1   
    95    36   106 1   
    96    37    38 1   
    97    37   107 1   
    98    37   108 1   
    99    38   109 1   
   100    38   110 1   
   101    38   111 1   
   102    39    40 1   
   103    40    41 1   
   104    40    42 1   
   105    42    43 1   
   106    43    44 1   
   107    43   112 1   
   108    43   113 1   
   109    44    45 1   
   110    44   114 1   
   111    44   115 1   
   112    45    46 1   
   113    45    47 1   
   114    45    48 1   
   115    46   116 1   
   116    46   117 1   
   117    46   118 1   
   118    47   119 1   
   119    47   120 1   
   120    47   121 1   
   121    48   122 1   
   122    48   123 1   
   123    48   124 1   
@<TRIPOS>SUBSTRUCTURE
     1 HGX         1 TEMP              0 ****  ****    0 ROOT
