@<TRIPOS>MOLECULE
HGZ
   33    34     1     0     0
SMALL
bcc


@<TRIPOS>ATOM
      1 C1           0.0000     0.0000     0.0000 ca         1 HGZ      -0.168000
      2 C2           1.4000     0.0000     0.0000 ca         1 HGZ      -0.073800
      3 C3           2.1050     0.0000     1.2200 ca         1 HGZ      -0.116400
      4 C4           1.3990    -0.0000     2.4210 ca         1 HGZ       0.077100
      5 C5           0.0130    -0.0010     2.4080 ca         1 HGZ       0.113100
      6 C6          -0.6840     0.0050     1.1970 ca         1 HGZ       0.111100
      7 C7           2.1550     0.0010    -1.2530 cc         1 HGZ      -0.007400
      8 C8           3.5110     0.0020    -1.1950 cd         1 HGZ      -0.210200
      9 C9           4.1690     0.0010     0.0520 c          1 HGZ       0.588700
     10 N10          3.4860     0.0000     1.2100 ns         1 HGZ       0.052900
     11 O11          5.3880     0.0020     0.0800 o          1 HGZ      -0.693500
     12 C12          1.4410     0.0010    -2.5800 c3         1 HGZ       0.054100
     13 O13          2.0690    -0.0010     3.6060 os         1 HGZ      -0.328900
     14 C14          2.3510    -1.2750     4.1910 c3         1 HGZ       0.251700
     15 O15         -0.6730    -0.0020     3.5810 os         1 HGZ      -0.322900
     16 C16         -0.9900     1.2710     4.1480 c3         1 HGZ       0.260700
     17 O17         -2.0440     0.0040     1.2000 os         1 HGZ      -0.291900
     18 C18         -2.6940     0.0110    -0.0730 c3         1 HGZ       0.240700
     19 H1          -0.5440     0.0040    -0.9370 ha         1 HGZ       0.133000
     20 H8           4.0900     0.0020    -2.1100 ha         1 HGZ       0.138000
     21 HN10         3.9860    -0.0000     2.0780 hn         1 HGZ       0.185500
     22 H12          0.8190    -0.8830    -2.6560 hc         1 HGZ       0.014033
     23 H12A         2.1690     0.0010    -3.3820 hc         1 HGZ       0.014033
     24 H12B         0.8210     0.8860    -2.6560 hc         1 HGZ       0.014033
     25 H14          1.7410    -1.4080     5.0770 h1         1 HGZ      -0.003633
     26 H14A         3.3980    -1.3230     4.4630 h1         1 HGZ      -0.003633
     27 H14B         2.1270    -2.0580     3.4770 h1         1 HGZ      -0.003633
     28 H16         -2.0630     1.4170     4.1300 h1         1 HGZ      -0.006633
     29 H16A        -0.5090     2.0530     3.5720 h1         1 HGZ      -0.006633
     30 H16B        -0.6370     1.3080     5.1720 h1         1 HGZ      -0.006633
     31 H18         -2.3630     0.8700    -0.6430 h1         1 HGZ      -0.001633
     32 H18A        -2.4470    -0.8970    -0.6090 h1         1 HGZ      -0.001633
     33 H18B        -3.7670     0.0640     0.0700 h1         1 HGZ      -0.001633
@<TRIPOS>BOND
     1     1     2 ar  
     2     1     6 ar  
     3     1    19 1   
     4     2     3 ar  
     5     2     7 1   
     6     3     4 ar  
     7     3    10 1   
     8     4     5 ar  
     9     4    13 1   
    10     5     6 ar  
    11     5    15 1   
    12     6    17 1   
    13     7     8 2   
    14     7    12 1   
    15     8     9 1   
    16     8    20 1   
    17     9    10 1   
    18     9    11 2   
    19    10    21 1   
    20    12    22 1   
    21    12    23 1   
    22    12    24 1   
    23    13    14 1   
    24    14    25 1   
    25    14    26 1   
    26    14    27 1   
    27    15    16 1   
    28    16    28 1   
    29    16    29 1   
    30    16    30 1   
    31    17    18 1   
    32    18    31 1   
    33    18    32 1   
    34    18    33 1   
@<TRIPOS>SUBSTRUCTURE
     1 HGZ         1 TEMP              0 ****  ****    0 ROOT
