@<TRIPOS>MOLECULE
HH3
   22    22     1     0     0
SMALL
bcc


@<TRIPOS>ATOM
      1 O1           0.0000     0.0000     0.0000 o          1 HH3      -0.688100
      2 O2           1.1210    -1.3250     2.9650 oh         1 HH3      -0.597800
      3 C1           3.3390    -0.0020    -3.6790 ca         1 HH3      -0.102000
      4 C6           1.9550    -0.0020    -3.6820 ca         1 HH3      -0.122500
      5 C5           1.2590    -0.0010    -2.4910 ca         1 HH3      -0.063500
      6 C4           1.9550    -0.0010    -1.2810 ca         1 HH3      -0.132600
      7 C3           3.3500    -0.0010    -1.2850 ca         1 HH3      -0.063500
      8 C2           4.0340    -0.0080    -2.4830 ca         1 HH3      -0.122500
      9 C7           1.2160     0.0000     0.0000 c          1 HH3       0.575700
     10 N1           1.8900     0.0000     1.1670 ns         1 HH3      -0.122900
     11 C9           1.1580     0.0010     2.4360 c3         1 HH3       0.122500
     12 C10          1.8490     0.9150     3.4140 c          1 HH3       0.941600
     13 O3           3.0410     0.5690     3.9280 o          1 HH3      -0.875800
     14 O4           1.3320     1.9580     3.7370 o          1 HH3      -0.875800
     15 HO2          0.3560    -1.4260     3.5070 ho         1 HH3       0.384000
     16 H5           0.1760    -0.0010    -2.4950 ha         1 HH3       0.122000
     17 H3           3.8960    -0.0030    -0.3490 ha         1 HH3       0.122000
     18 H2           5.1170    -0.0080    -2.4870 ha         1 HH3       0.096000
     19 HN1          2.8910    -0.0150     1.1660 hn         1 HH3       0.184500
     20 H9           0.1460     0.3500     2.2680 h2         1 HH3       0.031700
     21 H1           3.8800    -0.0050    -4.6180 ha         1 HH3       0.090000
     22 H6           1.4170    -0.0000    -4.6220 ha         1 HH3       0.096000
@<TRIPOS>BOND
     1     1     9 2   
     2     2    11 1   
     3     2    15 1   
     4     3     4 ar  
     5     3     8 ar  
     6     3    21 1   
     7     4     5 ar  
     8     4    22 1   
     9     5     6 ar  
    10     5    16 1   
    11     6     7 ar  
    12     6     9 1   
    13     7     8 ar  
    14     7    17 1   
    15     8    18 1   
    16     9    10 1   
    17    10    11 1   
    18    10    19 1   
    19    11    12 1   
    20    11    20 1   
    21    12    13 1   
    22    12    14 1   
@<TRIPOS>SUBSTRUCTURE
     1 HH3         1 TEMP              0 ****  ****    0 ROOT
