@<TRIPOS>MOLECULE
molecule
   34    34     1     0     0
SMALL
bcc


@<TRIPOS>ATOM
      1 C4           0.0000     0.0000     0.0000 ca         1 HH4      -0.062300
      2 C2          -1.6230     1.2590    -1.3900 c3         1 HH4      -0.079767
      3 C3           0.2480     0.0030    -2.4680 c3         1 HH4      -0.079767
      4 C1          -0.7490     0.0060    -1.3070 c3         1 HH4      -0.023700
      5 C7           1.3770     0.0020     2.4030 ca         1 HH4      -0.168600
      6 C6          -0.0210     0.0020     2.3940 ca         1 HH4      -0.081500
      7 C8           2.0770     0.0000     1.1910 ca         1 HH4      -0.081500
      8 C12          4.1220     0.0050     5.1290 c3         1 HH4      -0.174400
      9 C13          5.6290     0.0050     5.1340 c          1 HH4       0.890600
     10 C9           1.3840     0.0000     0.0000 ca         1 HH4      -0.150500
     11 C5          -0.6990     0.0010     1.1930 ca         1 HH4      -0.150500
     12 C11          3.6160     0.0030     3.6850 c3         1 HH4      -0.156400
     13 O1           6.2360     0.0030     4.0890 o          1 HH4      -0.856800
     14 O2           1.5000     0.0050     4.7280 o          1 HH4      -0.543100
     15 C10          2.1090     0.0030     3.6800 c          1 HH4       0.562700
     16 O            6.2970     0.0070     6.2980 o          1 HH4      -0.856800
     17 C           -1.6340    -1.2400    -1.3940 c3         1 HH4      -0.079767
     18 H1          -2.4240     1.1890    -0.6630 hc         1 HH4       0.034478
     19 H2          -2.0440     1.3410    -2.3840 hc         1 HH4       0.034478
     20 H3          -1.0200     2.1340    -1.1800 hc         1 HH4       0.034478
     21 H4          -0.2910     0.0050    -3.4070 hc         1 HH4       0.034478
     22 H5           0.8680    -0.8840    -2.4090 hc         1 HH4       0.034478
     23 H6           0.8740     0.8850    -2.4080 hc         1 HH4       0.034478
     24 H7          -0.5700     0.0030     3.3280 ha         1 HH4       0.150000
     25 H8           3.1600    -0.0000     1.1900 ha         1 HH4       0.150000
     26 H9           3.7600    -0.8790     5.6400 hc         1 HH4       0.042700
     27 H10          3.7600     0.8900     5.6370 hc         1 HH4       0.042700
     28 H11          1.9240    -0.0020    -0.9390 ha         1 HH4       0.127500
     29 H12         -1.7830     0.0010     1.1850 ha         1 HH4       0.127500
     30 H13          3.9780    -0.8820     3.1760 hc         1 HH4       0.070700
     31 H14          3.9780     0.8870     3.1740 hc         1 HH4       0.070700
     32 H16         -2.0540    -1.3160    -2.3900 hc         1 HH4       0.034478
     33 H17         -1.0390    -2.1210    -1.1850 hc         1 HH4       0.034478
     34 H18         -2.4360    -1.1650    -0.6690 hc         1 HH4       0.034478
@<TRIPOS>BOND
     1     3     4 1
     2     2     4 1
     3     4     1 1
     4     4    17 1
     5     1    11 ar
     6     1    10 ar
     7    11     6 ar
     8    10     7 ar
     9     6     5 ar
    10     7     5 ar
    11     5    15 1
    12    13     9 1
    13    15    14 2
    14    15    12 1
    15    12     8 1
    16     9    16 1
    17     9     8 1
    18     2    18 1
    19     2    19 1
    20     2    20 1
    21     3    21 1
    22     3    22 1
    23     3    23 1
    24     6    24 1
    25     7    25 1
    26     8    26 1
    27     8    27 1
    28    10    28 1
    29    11    29 1
    30    12    30 1
    31    12    31 1
    32    17    32 1
    33    17    33 1
    34    17    34 1
@<TRIPOS>SUBSTRUCTURE
     1 HH4         1 TEMP              0 ****  ****    0 ROOT
