@<TRIPOS>MOLECULE
molecule
   27    29     1     0     0
SMALL
bcc


@<TRIPOS>ATOM
      1 C1           0.0000     0.0000     0.0000 ca         1 HH6      -0.246900
      2 C2           1.4680     0.0000     0.0000 cc         1 HH6       0.425500
      3 C3          -0.3940    -0.0070     1.3510 ca         1 HH6      -0.006200
      4 C4          -0.9670    -0.0000    -1.0070 ca         1 HH6      -0.045000
      5 C5           2.3430     0.0010    -1.1960 ca         1 HH6      -0.102900
      6 N6           1.8630     0.0000     1.2500 nd         1 HH6      -0.492100
      7 N7           0.7550    -0.0050     2.1020 na         1 HH6      -0.051100
      8 C8          -1.7490    -0.0130     1.6700 ca         1 HH6      -0.190000
      9 C9          -2.2920    -0.0070    -0.6780 ca         1 HH6      -0.190000
     10 C10          1.9550    -0.6870    -2.3460 ca         1 HH6      -0.092500
     11 C11          3.5540     0.6940    -1.1760 ca         1 HH6      -0.092500
     12 C12         -2.6890    -0.0130     0.6570 ca         1 HH6       0.150100
     13 C13          2.7700    -0.6800    -3.4590 ca         1 HH6      -0.156500
     14 C14          4.3650     0.6910    -2.2910 ca         1 HH6      -0.156500
     15 O15         -4.0130    -0.0200     0.9670 oh         1 HH6      -0.521100
     16 C16          3.9740     0.0110    -3.4360 ca         1 HH6       0.113100
     17 O17          4.7740     0.0150    -4.5340 oh         1 HH6      -0.522100
     18 H1          -0.6670     0.0050    -2.0480 ha         1 HH6       0.137000
     19 H3          -2.0650    -0.0180     2.7060 ha         1 HH6       0.142000
     20 H4          -3.0400    -0.0070    -1.4610 ha         1 HH6       0.144000
     21 H5           1.0160    -1.2260    -2.3650 ha         1 HH6       0.144500
     22 H6           3.8600     1.2250    -0.2830 ha         1 HH6       0.144500
     23 H7           2.4690    -1.2120    -4.3530 ha         1 HH6       0.143500
     24 H8           5.3050     1.2290    -2.2760 ha         1 HH6       0.143500
     25 H9          -4.3130     0.8660     1.0850 ho         1 HH6       0.423000
     26 H10          4.5480     0.7460    -5.0850 ho         1 HH6       0.420000
     27 H2           0.7930    -0.0060     3.1020 hn         1 HH6       0.334700
@<TRIPOS>BOND
     1    17    16 1
     2    13    16 ar
     3    13    10 ar
     4    16    14 ar
     5    10     5 ar
     6    14    11 ar
     7     5    11 ar
     8     5     2 1
     9     6     2 2
    10     6     7 1
    11     2     1 1
    12     7     3 1
    13     1     4 ar
    14     1     3 ar
    15     4     9 ar
    16     3     8 ar
    17     9    12 ar
    18     8    12 ar
    19    12    15 1
    20     4    18 1
    21     8    19 1
    22     9    20 1
    23    10    21 1
    24    11    22 1
    25    13    23 1
    26    14    24 1
    27    15    25 1
    28    17    26 1
    29     7    27 1
@<TRIPOS>SUBSTRUCTURE
     1 HH6         1 TEMP              0 ****  ****    0 ROOT
