@<TRIPOS>MOLECULE
HH6
   27    29     1     0     0
SMALL
bcc


@<TRIPOS>ATOM
      1 C1         -0.0050    0.0460   -0.0320 ca        1 HH6     -0.235900
      2 C2          1.4600   -0.0040   -0.0130 cc        1 HH6      0.413500
      3 C3         -0.3760   -0.0360    1.3630 ca        1 HH6     -0.021200
      4 C4         -0.9950    0.1720   -1.0020 ca        1 HH6     -0.025000
      5 C5          2.3300    0.0470   -1.1760 ca        1 HH6     -0.131900
      6 N6          1.8920   -0.1040    1.2690 nd        1 HH6     -0.513100
      7 N7          0.8290   -0.0690    2.0860 na        1 HH6     -0.014100
      8 C8         -1.7130   -0.0140    1.7760 ca        1 HH6     -0.179000
      9 C9         -2.3240    0.1930   -0.6070 ca        1 HH6     -0.237000
     10 C10         1.9550   -0.6020   -2.3600 ca        1 HH6     -0.072000
     11 C11         3.5500    0.7400   -1.1230 ca        1 HH6     -0.072000
     12 C12        -2.6690    0.0980    0.7630 ca        1 HH6      0.154100
     13 C13         2.7760   -0.5570   -3.4820 ca        1 HH6     -0.190000
     14 C14         4.3810    0.7960   -2.2360 ca        1 HH6     -0.190000
     15 O15        -3.9830    0.1100    1.1750 oh        1 HH6     -0.497100
     16 C16         3.9890    0.1450   -3.4170 ca        1 HH6      0.131100
     17 O17         4.8510    0.2360   -4.4850 oh        1 HH6     -0.496100
     18 H1         -0.7250    0.2610   -2.0660 ha        1 HH6      0.143000
     19 H3         -2.0100   -0.0760    2.8290 ha        1 HH6      0.158000
     20 H4         -3.1220    0.2890   -1.3560 ha        1 HH6      0.136000
     21 H5          1.0060   -1.1600   -2.4000 ha        1 HH6      0.144000
     22 H6          3.8540    1.2450   -0.1930 ha        1 HH6      0.144000
     23 H7          2.4800   -1.0690   -4.4080 ha        1 HH6      0.143500
     24 H8          5.3370    1.3370   -2.2060 ha        1 HH6      0.143500
     25 H9         -4.5430    0.1960    0.3900 ho        1 HH6      0.422000
     26 H10         4.4680   -0.2600   -5.2220 ho        1 HH6      0.419000
     27 H2          0.9300   -0.3760    3.0250 hn        1 HH6      0.320700
@<TRIPOS>BOND
     1    1    2 1   
     2    1    3 ar  
     3    1    4 ar  
     4    2    5 1   
     5    2    6 2   
     6    3    7 1   
     7    3    8 ar  
     8    4    9 ar  
     9    4   18 1   
    10    5   10 ar  
    11    5   11 ar  
    12    6    7 1   
    13    7   27 1   
    14    8   12 ar  
    15    8   19 1   
    16    9   12 ar  
    17    9   20 1   
    18   10   13 ar  
    19   10   21 1   
    20   11   14 ar  
    21   11   22 1   
    22   12   15 1   
    23   13   16 ar  
    24   13   23 1   
    25   14   16 ar  
    26   14   24 1   
    27   15   25 1   
    28   16   17 1   
    29   17   26 1   
@<TRIPOS>SUBSTRUCTURE
     1 HH6         1 TEMP              0 ****  ****    0 ROOT
