@<TRIPOS>MOLECULE
HHA
   20    20     1     0     0
SMALL
bcc


@<TRIPOS>ATOM
      1 O1           0.0000     0.0000     0.0000 o          1 HHA      -0.844800
      2 C            1.3480     0.0000     0.0000 c          1 HHA       0.945800
      3 O2           1.9570     0.0000     1.0530 o          1 HHA      -0.844800
      4 C1           2.0570     0.0020    -1.2280 ce         1 HHA      -0.180400
      5 C6           3.4090     0.0020    -1.2290 cf         1 HHA      -0.069000
      6 C5           4.1290     0.0080    -2.5040 cf         1 HHA      -0.045000
      7 C4           3.5040     0.3940    -3.6170 c2         1 HHA      -0.269200
      8 C3           2.0630     0.8260    -3.5700 c3         1 HHA       0.246300
      9 O3'          1.9960     2.2100    -3.2190 oh         1 HHA      -0.527800
     10 C2           1.3020     0.0030    -2.5310 c3         1 HHA      -0.036300
     11 N2           1.1580    -1.3770    -3.0130 nz         1 HHA       0.079400
     12 H6           3.9510    -0.1370    -0.3020 ha         1 HHA       0.156000
     13 H5           5.1860    -0.2270    -2.5300 ha         1 HHA       0.111000
     14 H4           4.0370     0.4000    -4.5600 ha         1 HHA       0.117000
     15 H3           1.6120     0.6760    -4.5440 h1         1 HHA      -0.013300
     16 H3'          1.7980     2.7200    -3.9860 ho         1 HHA       0.394000
     17 H2           0.3220     0.4390    -2.3760 hx         1 HHA       0.134700
     18 HN21         2.0630    -1.7590    -3.2060 hn         1 HHA       0.216467
     19 HN22         0.7050    -1.9300    -2.3120 hn         1 HHA       0.216467
     20 H23          0.6080    -1.3830    -3.8490 hn         1 HHA       0.216467
@<TRIPOS>BOND
     1     1     2 1   
     2     2     3 1   
     3     2     4 1   
     4     4     5 2   
     5     4    10 1   
     6     5     6 1   
     7     5    12 1   
     8     6     7 2   
     9     6    13 1   
    10     7     8 1   
    11     7    14 1   
    12     8     9 1   
    13     8    10 1   
    14     8    15 1   
    15     9    16 1   
    16    10    11 1   
    17    10    17 1   
    18    11    18 1   
    19    11    19 1   
    20    11    20 1   
@<TRIPOS>SUBSTRUCTURE
     1 HHA         1 TEMP              0 ****  ****    0 ROOT
