@<TRIPOS>MOLECULE
molecule
   22    21     1     0     0
SMALL
bcc


@<TRIPOS>ATOM
      1 O5           0.0000     0.0000     0.0000 o          1 HHD      -0.871800
      2 CZ           1.3430     0.0000     0.0000 c          1 HHD       0.891600
      3 O4           1.9470     0.0000     1.0470 o          1 HHD      -0.871800
      4 CE           2.0960     0.0000    -1.3040 c3         1 HHD      -0.180400
      5 CD           3.6010     0.0010    -1.0240 c3         1 HHD      -0.064400
      6 CG           4.3660     0.0010    -2.3490 c3         1 HHD      -0.106400
      7 CB           5.8700    -0.0000    -2.0700 c3         1 HHD       0.165100
      8 O3           6.2340     1.2200    -1.4220 oh         1 HHD      -0.609800
      9 CA           6.6340    -0.1260    -3.3890 c3         1 HHD      -0.192400
     10 C            8.1090    -0.2490    -3.1050 c          1 HHD       0.898600
     11 O2           8.5080    -0.2380    -1.9650 o          1 HHD      -0.871800
     12 O1           8.9800    -0.3720    -4.1200 o          1 HHD      -0.871800
     13 HE1C         1.8350     0.8850    -1.8720 hc         1 HHD       0.022700
     14 HE2C         1.8350    -0.8840    -1.8730 hc         1 HHD       0.022700
     15 HD1C         3.8620     0.8850    -0.4560 hc         1 HHD       0.044200
     16 HD2C         3.8620    -0.8840    -0.4560 hc         1 HHD       0.044200
     17 HG1C         4.1040    -0.8830    -2.9180 hc         1 HHD       0.026700
     18 HG2C         4.1050     0.8860    -2.9170 hc         1 HHD       0.026700
     19 HB           6.1170    -0.8370    -1.4280 h1         1 HHD       0.035700
     20 H3           6.5660     1.0320    -0.5600 ho         1 HHD       0.397000
     21 HA1C         6.2940    -1.0060    -3.9210 hc         1 HHD       0.032700
     22 HA2C         6.4550     0.7540    -3.9950 hc         1 HHD       0.032700
@<TRIPOS>BOND
     1     1     2 1
     2     2     3 1
     3     2     4 1
     4     4     5 1
     5     5     6 1
     6     6     7 1
     7     7     8 1
     8     7     9 1
     9     9    10 1
    10    10    11 1
    11    10    12 1
    12     4    13 1
    13     4    14 1
    14     5    15 1
    15     5    16 1
    16     6    17 1
    17     6    18 1
    18     7    19 1
    19     8    20 1
    20     9    21 1
    21     9    22 1
@<TRIPOS>SUBSTRUCTURE
     1 HHD         1 TEMP              0 ****  ****    0 ROOT
