@<TRIPOS>MOLECULE
HHE
   85    89     1     0     0
SMALL
bcc


@<TRIPOS>ATOM
      1 C1           0.0000     0.0000     0.0000 c3         1 HHE       0.025700
      2 C2           1.5300     0.0000     0.0000 c3         1 HHE      -0.051700
      3 C3          -0.5090    -1.2500     0.7220 c3         1 HHE      -0.051700
      4 C4           2.0400    -1.2490    -0.7210 c3         1 HHE      -0.025900
      5 C5           0.0010    -2.4990     0.0000 c3         1 HHE      -0.025900
      6 C6           1.5310    -2.4980     0.0000 c3         1 HHE       0.171800
      7 C7           0.0010    -1.2490     2.1640 c3         1 HHE      -0.023400
      8 C8           1.5300    -1.2490     2.1640 c3         1 HHE      -0.035700
      9 C9           2.0410     0.0000     1.4430 c3         1 HHE      -0.023400
     10 C10          2.0410    -2.4980     1.4420 c3         1 HHE      -0.054400
     11 O11          2.0070    -3.6650    -0.6740 oh         1 HHE      -0.580800
     12 N12         -0.4880     1.1960     0.6910 ns         1 HHE      -0.170900
     13 C13         -1.8380     5.9620     0.4130 c3         1 HHE       0.170100
     14 C14         -1.7850     7.1530    -0.5460 c3         1 HHE      -0.097500
     15 C15         -2.2840     8.4090     0.1730 c3         1 HHE       0.111800
     16 N16         -2.6390     6.8830    -1.7100 nz         1 HHE       0.067400
     17 N17         -2.3460     9.5260    -0.7800 n3         1 HHE      -0.578600
     18 C18         -1.0030     9.8980    -1.2430 c3         1 HHE       0.068800
     19 C19         -1.0770    11.1360    -2.0910 c          1 HHE       0.604500
     20 N20         -2.1360    11.9520    -2.0900 n          1 HHE      -0.000000
     21 C21         -3.3310    11.6980    -1.2910 c3         1 HHE       0.052000
     22 C22         -3.0180    10.6910    -0.1830 c3         1 HHE       0.105200
     23 C23         -4.3190    10.2480     0.4900 c3         1 HHE      -0.024100
     24 C24         -2.0980    11.3380     0.8540 c3         1 HHE      -0.024100
     25 C25         -2.0970    13.1010    -2.8870 ca         1 HHE      -0.102400
     26 C26         -2.5550    13.0550    -4.1970 ca         1 HHE      -0.070000
     27 C27         -2.5150    14.1900    -4.9830 ca         1 HHE      -0.088000
     28 C28         -2.0190    15.3730    -4.4670 ca         1 HHE      -0.061000
     29 C29         -1.5600    15.4230    -3.1630 ca         1 HHE      -0.085000
     30 C30         -1.6040    14.2930    -2.3700 ca         1 HHE      -0.016600
     31 O31         -0.1370    11.4060    -2.8090 o          1 HHE      -0.643500
     32 Cl          -1.0290    14.3570    -0.7320 cl         1 HHE      -0.020400
     33 C33         -1.3390     4.7070    -0.3050 c3         1 HHE      -0.048400
     34 C34         -1.2260     3.5570     0.6980 c3         1 HHE      -0.112700
     35 C35         -0.6170     2.3560     0.0190 c          1 HHE       0.574100
     36 O36         -0.2440     2.4350    -1.1330 o          1 HHE      -0.662100
     37 C37         -2.6180     3.1960     1.2200 c3         1 HHE      -0.039400
     38 O38         -3.1840     5.7600     0.8470 oh         1 HHE      -0.592800
     39 C39         -3.5440     2.8960     0.0390 c3         1 HHE      -0.013100
     40 H1          -0.3610     0.0000    -1.0210 h1         1 HHE       0.060700
     41 H2           1.8910     0.8850    -0.5110 hc         1 HHE       0.036200
     42 H3          -1.5930    -1.2510     0.7220 hc         1 HHE       0.036200
     43 H4           3.1240    -1.2480    -0.7210 hc         1 HHE       0.030450
     44 H5           1.6790    -1.2490    -1.7430 hc         1 HHE       0.030450
     45 H6          -0.3590    -3.3840     0.5110 hc         1 HHE       0.030450
     46 H7          -0.3600    -2.4990    -1.0210 hc         1 HHE       0.030450
     47 H8          -0.3610    -0.3650     2.6740 hc         1 HHE       0.016700
     48 H9          -0.3610    -2.1340     2.6750 hc         1 HHE       0.016700
     49 H10          1.8910    -1.2500     3.1850 hc         1 HHE       0.030700
     50 H11          1.6800     0.8850     1.9540 hc         1 HHE       0.016700
     51 H12          3.1240    -0.0000     1.4420 hc         1 HHE       0.016700
     52 H13          1.6800    -3.3830     1.9530 hc         1 HHE       0.027200
     53 H14          3.1240    -2.4980     1.4420 hc         1 HHE       0.027200
     54 H15          2.9010    -3.8290    -0.4240 ho         1 HHE       0.397000
     55 H16         -0.7630     1.1410     1.6520 hn         1 HHE       0.186500
     56 H17         -1.2080     6.1620     1.2720 h1         1 HHE       0.047700
     57 H18         -0.7650     7.3070    -0.8750 hx         1 HHE       0.100700
     58 H19         -3.2710     8.2250     0.5790 h1         1 HHE       0.058700
     59 H20         -1.6030     8.6590     0.9780 h1         1 HHE       0.058700
     60 H21         -3.5610     6.6480    -1.4000 hn         1 HHE       0.234800
     61 H22         -2.6800     7.6980    -2.2900 hn         1 HHE       0.234800
     62 H25         -0.5890     9.0860    -1.8300 h1         1 HHE       0.040200
     63 H26         -0.3680    10.0880    -0.3860 h1         1 HHE       0.040200
     64 H27         -3.6680    12.6270    -0.8460 h1         1 HHE       0.037200
     65 H28         -4.1100    11.2970    -1.9290 h1         1 HHE       0.037200
     66 H29         -4.8400     9.5510    -0.1540 hc         1 HHE       0.024033
     67 H30         -4.9460    11.1130     0.6690 hc         1 HHE       0.024033
     68 H31         -4.0910     9.7660     1.4340 hc         1 HHE       0.024033
     69 H32         -1.8760    10.6230     1.6360 hc         1 HHE       0.024033
     70 H33         -2.5910    12.2020     1.2840 hc         1 HHE       0.024033
     71 H34         -1.1770    11.6490     0.3750 hc         1 HHE       0.024033
     72 H35         -2.9440    12.1290    -4.6030 ha         1 HHE       0.105000
     73 H36         -2.8730    14.1540    -6.0050 ha         1 HHE       0.114000
     74 H37         -1.9860    16.2610    -5.0860 ha         1 HHE       0.115000
     75 H38         -1.1740    16.3520    -2.7610 ha         1 HHE       0.125000
     76 H39         -0.3670     4.9020    -0.7410 hc         1 HHE       0.044200
     77 H40         -2.0380     4.4360    -1.0870 hc         1 HHE       0.044200
     78 H41         -0.5970     3.8610     1.5260 hc         1 HHE       0.042700
     79 H42         -3.0170     4.0270     1.7890 hc         1 HHE       0.027200
     80 H43         -2.5500     2.3220     1.8560 hc         1 HHE       0.027200
     81 H44         -3.2630     6.0070     1.7540 ho         1 HHE       0.428000
     82 H45         -2.9610     2.8420    -0.8720 hc         1 HHE       0.013033
     83 H46         -4.0440     1.9500     0.2040 hc         1 HHE       0.013033
     84 H47         -4.2820     3.6840    -0.0500 hc         1 HHE       0.013033
     85 H163        -2.2710     6.1050    -2.2210 hn         1 HHE       0.234800
@<TRIPOS>BOND
     1     1     2 1   
     2     1     3 1   
     3     1    12 1   
     4     1    40 1   
     5     2     4 1   
     6     2     9 1   
     7     2    41 1   
     8     3     5 1   
     9     3     7 1   
    10     3    42 1   
    11     4     6 1   
    12     4    43 1   
    13     4    44 1   
    14     5     6 1   
    15     5    45 1   
    16     5    46 1   
    17     6    10 1   
    18     6    11 1   
    19     7     8 1   
    20     7    47 1   
    21     7    48 1   
    22     8     9 1   
    23     8    10 1   
    24     8    49 1   
    25     9    50 1   
    26     9    51 1   
    27    10    52 1   
    28    10    53 1   
    29    11    54 1   
    30    12    35 1   
    31    12    55 1   
    32    13    14 1   
    33    13    33 1   
    34    13    38 1   
    35    13    56 1   
    36    14    15 1   
    37    14    16 1   
    38    14    57 1   
    39    15    17 1   
    40    15    58 1   
    41    15    59 1   
    42    16    60 1   
    43    16    61 1   
    44    16    85 1   
    45    17    18 1   
    46    17    22 1   
    47    18    19 1   
    48    18    62 1   
    49    18    63 1   
    50    19    20 1   
    51    19    31 2   
    52    20    21 1   
    53    20    25 1   
    54    21    22 1   
    55    21    64 1   
    56    21    65 1   
    57    22    23 1   
    58    22    24 1   
    59    23    66 1   
    60    23    67 1   
    61    23    68 1   
    62    24    69 1   
    63    24    70 1   
    64    24    71 1   
    65    25    26 ar  
    66    25    30 ar  
    67    26    27 ar  
    68    26    72 1   
    69    27    28 ar  
    70    27    73 1   
    71    28    29 ar  
    72    28    74 1   
    73    29    30 ar  
    74    29    75 1   
    75    30    32 1   
    76    33    34 1   
    77    33    76 1   
    78    33    77 1   
    79    34    35 1   
    80    34    37 1   
    81    34    78 1   
    82    35    36 2   
    83    37    39 1   
    84    37    79 1   
    85    37    80 1   
    86    38    81 1   
    87    39    82 1   
    88    39    83 1   
    89    39    84 1   
@<TRIPOS>SUBSTRUCTURE
     1 HHE         1 TEMP              0 ****  ****    0 ROOT
