@<TRIPOS>MOLECULE
molecule
   29    31     1     0     0
SMALL
bcc


@<TRIPOS>ATOM
      1 CAG          0.0000     0.0000     0.0000 ca         1 HHF      -0.082500
      2 CAE          1.3790     0.0000     0.0000 ca         1 HHF      -0.137000
      3 CAD          2.0750     0.0000     1.1960 ca         1 HHF      -0.107000
      4 CAF          1.3920     0.0000     2.4000 ca         1 HHF      -0.137000
      5 CAH          0.0130    -0.0000     2.4150 ca         1 HHF      -0.082500
      6 CAN         -0.6950     0.0060     1.2110 ca         1 HHF      -0.065800
      7 CAP         -2.1700     0.0060     1.2200 cc         1 HHF       0.173900
      8 OAL         -2.8130    -0.8620     2.0200 os         1 HHF      -0.198200
      9 CAR         -4.1590    -0.9230     2.0850 ca         1 HHF       0.172100
     10 CAK         -4.7900    -1.8320     2.9230 ca         1 HHF      -0.190000
     11 CAM         -6.1730    -1.8760     2.9720 ca         1 HHF       0.165100
     12 OAB         -6.7890    -2.7650     3.7930 oh         1 HHF      -0.518100
     13 CAI         -6.9370    -1.0150     2.1870 ca         1 HHF      -0.192000
     14 CAJ         -6.3310    -0.1160     1.3570 ca         1 HHF      -0.025000
     15 CAS         -4.9390    -0.0590     1.2960 ca         1 HHF      -0.241600
     16 CAQ         -4.2510     0.8990     0.4130 c          1 HHF       0.563900
     17 OAA         -4.8750     1.6720    -0.2940 o          1 HHF      -0.545100
     18 CAO         -2.8300     0.8900     0.4200 cd         1 HHF      -0.097100
     19 OAC         -2.1350     1.7490    -0.3730 oh         1 HHF      -0.482100
     20 H1          -0.5430     0.0020    -0.9370 ha         1 HHF       0.145500
     21 H2           1.9190    -0.0020    -0.9390 ha         1 HHF       0.135500
     22 H3           3.1580     0.0000     1.1900 ha         1 HHF       0.132000
     23 H4           1.9430    -0.0020     3.3330 ha         1 HHF       0.135500
     24 H5          -0.5190     0.0020     3.3580 ha         1 HHF       0.145500
     25 H6          -4.2050    -2.5670     3.4620 ha         1 HHF       0.161000
     26 H7          -6.9200    -2.3720     4.6400 ho         1 HHF       0.429000
     27 H8          -8.0190    -1.0600     2.2360 ha         1 HHF       0.150000
     28 H9          -6.9300     0.5510     0.7490 ha         1 HHF       0.162000
     29 H10         -2.4410     2.6290    -0.2280 ho         1 HHF       0.428000
@<TRIPOS>BOND
     1    17    16 2
     2    14    13 ar
     3    14    15 ar
     4    13    11 ar
     5    16    15 1
     6    16    18 1
     7    15     9 ar
     8    11    12 1
     9    11    10 ar
    10    19    18 1
    11    18     7 2
    12     9    10 ar
    13     9     8 1
    14     7     8 1
    15     7     6 1
    16     6     5 ar
    17     6     1 ar
    18     5     4 ar
    19     1     2 ar
    20     4     3 ar
    21     2     3 ar
    22     1    20 1
    23     2    21 1
    24     3    22 1
    25     4    23 1
    26     5    24 1
    27    10    25 1
    28    12    26 1
    29    13    27 1
    30    14    28 1
    31    19    29 1
@<TRIPOS>SUBSTRUCTURE
     1 HHF         1 TEMP              0 ****  ****    0 ROOT
