@<TRIPOS>MOLECULE
HHF
   29    31     1     0     0
SMALL
bcc


@<TRIPOS>ATOM
      1 CAG         0.0900    0.3320    0.0640 ca        1 HHF     -0.090500
      2 CAE         1.4780    0.2390    0.1640 ca        1 HHF     -0.139500
      3 CAD         2.0720   -0.1700    1.3570 ca        1 HHF     -0.111000
      4 CAF         1.2750   -0.4900    2.4570 ca        1 HHF     -0.139500
      5 CAH        -0.1110   -0.4000    2.3660 ca        1 HHF     -0.090500
      6 CAN        -0.7140    0.0150    1.1680 ca        1 HHF     -0.057800
      7 CAP        -2.1690    0.1160    1.0780 cc        1 HHF      0.139900
      8 OAL        -2.7810   -0.7820    1.9500 os        1 HHF     -0.213200
      9 CAR        -4.1590   -0.8100    1.9950 ca        1 HHF      0.196100
     10 CAK        -4.7040   -1.7450    2.8940 ca        1 HHF     -0.261000
     11 CAM        -6.0940   -1.8270    2.9900 ca        1 HHF      0.189100
     12 OAB        -6.7190   -2.7060    3.8360 oh        1 HHF     -0.486100
     13 CAI        -6.9400   -1.0020    2.2140 ca        1 HHF     -0.194000
     14 CAJ        -6.3770   -0.0930    1.3390 ca        1 HHF     -0.010000
     15 CAS        -4.9790    0.0190    1.2130 ca        1 HHF     -0.255600
     16 CAQ        -4.3730    0.9730    0.2940 c         1 HHF      0.577900
     17 OAA        -5.0030    1.7590   -0.4320 o         1 HHF     -0.560100
     18 CAO        -2.8990    0.9480    0.2820 cd        1 HHF     -0.067100
     19 OAC        -2.2470    1.8100   -0.5730 oh        1 HHF     -0.489100
     20 H1         -0.3730    0.6570   -0.8820 ha        1 HHF      0.150500
     21 H2          2.1030    0.4910   -0.7050 ha        1 HHF      0.136000
     22 H3          3.1670   -0.2400    1.4320 ha        1 HHF      0.134000
     23 H4          1.7410   -0.8130    3.3990 ha        1 HHF      0.136000
     24 H5         -0.7410   -0.6540    3.2320 ha        1 HHF      0.150500
     25 H6         -4.0400   -2.3830    3.4920 ha        1 HHF      0.159000
     26 H7         -6.0400   -3.2140    4.3070 ho        1 HHF      0.428000
     27 H8         -8.0300   -1.1000    2.3220 ha        1 HHF      0.162000
     28 H9         -7.0120    0.5640    0.7200 ha        1 HHF      0.164000
     29 H10        -2.9260    2.3820   -0.9730 ho        1 HHF      0.444000
@<TRIPOS>BOND
     1    1    2 ar  
     2    1    6 ar  
     3    1   20 1   
     4    2    3 ar  
     5    2   21 1   
     6    3    4 ar  
     7    3   22 1   
     8    4    5 ar  
     9    4   23 1   
    10    5    6 ar  
    11    5   24 1   
    12    6    7 1   
    13    7    8 1   
    14    7   18 2   
    15    8    9 1   
    16    9   10 ar  
    17    9   15 ar  
    18   10   11 ar  
    19   10   25 1   
    20   11   12 1   
    21   11   13 ar  
    22   12   26 1   
    23   13   14 ar  
    24   13   27 1   
    25   14   15 ar  
    26   14   28 1   
    27   15   16 1   
    28   16   17 2   
    29   16   18 1   
    30   18   19 1   
    31   19   29 1   
@<TRIPOS>SUBSTRUCTURE
     1 HHF         1 TEMP              0 ****  ****    0 ROOT
