@<TRIPOS>MOLECULE
HHG
   34    33     1     0     0
SMALL
bcc


@<TRIPOS>ATOM
      1 O2P         0.1510    0.2060   -0.2510 o         1 HHG     -0.928833
      2 P           1.6020   -0.1380   -0.4260 p5        1 HHG      1.312900
      3 O4P         2.3660   -0.5320    0.8090 o         1 HHG     -0.928833
      4 O1P         1.9870   -0.8740   -1.6810 o         1 HHG     -0.928833
      5 O3P         2.3040    1.4430   -0.7450 os        1 HHG     -0.567200
      6 C1          3.6560    1.3010   -0.9330 c3        1 HHG      0.171400
      7 C2          4.2500    2.6770   -1.3210 c3        1 HHG      0.120100
      8 O2          3.5740    3.7530   -0.6930 oh        1 HHG     -0.660800
      9 C3          5.7210    2.7420   -0.9060 c3        1 HHG      0.130400
     10 O3          6.3710    3.6170   -1.8610 os        1 HHG     -0.424900
     11 C4          7.6130    4.0580   -1.5740 c         1 HHG      0.626100
     12 O1          8.1930    3.6910   -0.5440 o         1 HHG     -0.580000
     13 C5          8.1390    5.0100   -2.6120 c3        1 HHG     -0.134400
     14 C6          9.6340    4.8590   -2.7860 c3        1 HHG     -0.078400
     15 C7         10.1820    5.9160   -3.7200 c3        1 HHG     -0.078400
     16 C8         11.6750    5.7580   -3.9130 c3        1 HHG     -0.081400
     17 C9         12.2300    6.8100   -4.8380 c3        1 HHG     -0.090100
     18 H11         4.1360    0.9310    0.0180 h1        1 HHG      0.024200
     19 H12         3.8640    0.5620   -1.7560 h1        1 HHG      0.024200
     20 H2          4.1680    2.8370   -2.4320 h1        1 HHG      0.029700
     21 HO2         2.7370    3.3900   -0.3490 ho        1 HHG      0.456000
     22 H31         5.8440    3.1630    0.1230 h1        1 HHG      0.055200
     23 H32         6.2140    1.7400   -0.9810 h1        1 HHG      0.055200
     24 H51         7.8870    6.0490   -2.2710 hc        1 HHG      0.069200
     25 H52         7.6080    4.8320   -3.5830 hc        1 HHG      0.069200
     26 H61        10.1340    4.9330   -1.7830 hc        1 HHG      0.054200
     27 H62         9.8620    3.8380   -3.1920 hc        1 HHG      0.054200
     28 H71         9.6650    5.8450   -4.7140 hc        1 HHG      0.036200
     29 H72         9.9630    6.9350   -3.3070 hc        1 HHG      0.036200
     30 H81        11.8910    4.7380   -4.3280 hc        1 HHG      0.039200
     31 H82        12.1880    5.8220   -2.9160 hc        1 HHG      0.039200
     32 H91        13.3310    6.6750   -4.9660 hc        1 HHG      0.026367
     33 H92        12.0460    7.8320   -4.4270 hc        1 HHG      0.026367
     34 H93        11.7470    6.7450   -5.8430 hc        1 HHG      0.026367
@<TRIPOS>BOND
     1    1    2 1   
     2    2    3 1   
     3    2    4 1   
     4    2    5 1   
     5    5    6 1   
     6    6    7 1   
     7    6   18 1   
     8    6   19 1   
     9    7    8 1   
    10    7    9 1   
    11    7   20 1   
    12    8   21 1   
    13    9   10 1   
    14    9   22 1   
    15    9   23 1   
    16   10   11 1   
    17   11   12 2   
    18   11   13 1   
    19   13   14 1   
    20   13   24 1   
    21   13   25 1   
    22   14   15 1   
    23   14   26 1   
    24   14   27 1   
    25   15   16 1   
    26   15   28 1   
    27   15   29 1   
    28   16   17 1   
    29   16   30 1   
    30   16   31 1   
    31   17   32 1   
    32   17   33 1   
    33   17   34 1   
@<TRIPOS>SUBSTRUCTURE
     1 HHG         1 TEMP              0 ****  ****    0 ROOT
