@<TRIPOS>MOLECULE
molecule
   34    33     1     0     0
SMALL
bcc


@<TRIPOS>ATOM
      1 O2P          0.0000     0.0000     0.0000 o          1 HHG      -0.908833
      2 P            1.6090     0.0000     0.0000 p5         1 HHG       1.151900
      3 O4P          2.1030     0.0000     1.3960 o          1 HHG      -0.908833
      4 O1P          2.1460    -1.3140    -0.7590 o          1 HHG      -0.908833
      5 O3P          2.1470     1.3150    -0.7590 os         1 HHG      -0.535200
      6 C1           3.5690     1.3190    -0.6230 c3         1 HHG       0.157400
      7 C2           4.1450     2.5480    -1.3270 c3         1 HHG       0.138100
      8 O2           3.6990     3.7320    -0.6600 oh         1 HHG      -0.600800
      9 C3           5.6730     2.4880    -1.2900 c3         1 HHG       0.133400
     10 O3           6.2210     3.5920    -2.0580 os         1 HHG      -0.438900
     11 C4           7.5500     3.7400    -2.1660 c          1 HHG       0.633100
     12 O1           8.2920     2.9570    -1.6240 o          1 HHG      -0.570000
     13 C5           8.1180     4.8860    -2.9630 c3         1 HHG      -0.131400
     14 C6           9.6470     4.8260    -2.9270 c3         1 HHG      -0.071400
     15 C7          10.2230     5.9890    -3.7360 c3         1 HHG      -0.084400
     16 C8          11.7510     5.9280    -3.6990 c3         1 HHG      -0.082400
     17 C9          12.3280     7.0910    -4.5100 c3         1 HHG      -0.092100
     18 H11          3.8320     1.3470     0.4270 h1         1 HHG       0.051200
     19 H12          3.9770     0.4210    -1.0730 h1         1 HHG       0.051200
     20 H2           3.8090     2.5660    -2.3570 h1         1 HHG       0.033700
     21 HO2          3.1930     4.2580    -1.2570 ho         1 HHG       0.387000
     22 H31          6.0080     1.5510    -1.7170 h1         1 HHG       0.057200
     23 H32          6.0130     2.5590    -0.2640 h1         1 HHG       0.057200
     24 H51          7.7790     4.8150    -3.9900 hc         1 HHG       0.063700
     25 H52          7.7830     5.8240    -2.5370 hc         1 HHG       0.063700
     26 H61          9.9810     3.8880    -3.3530 hc         1 HHG       0.056700
     27 H62          9.9860     4.8970    -1.9000 hc         1 HHG       0.056700
     28 H71          9.8840     5.9180    -4.7620 hc         1 HHG       0.037200
     29 H72          9.8880     6.9270    -3.3090 hc         1 HHG       0.037200
     30 H81         12.0900     6.0000    -2.6730 hc         1 HHG       0.041700
     31 H82         12.0850     4.9900    -4.1250 hc         1 HHG       0.041700
     32 H91         13.4100     7.0480    -4.4830 hc         1 HHG       0.027700
     33 H92         11.9880     7.0200    -5.5360 hc         1 HHG       0.027700
     34 H93         11.9930     8.0300    -4.0840 hc         1 HHG       0.027700
@<TRIPOS>BOND
     1     1     2 1
     2     2     3 1
     3     2     4 1
     4     2     5 1
     5     5     6 1
     6     6     7 1
     7     6    18 1
     8     6    19 1
     9     7     8 1
    10     7     9 1
    11     7    20 1
    12     8    21 1
    13     9    10 1
    14     9    22 1
    15     9    23 1
    16    10    11 1
    17    11    12 2
    18    11    13 1
    19    13    14 1
    20    13    24 1
    21    13    25 1
    22    14    15 1
    23    14    26 1
    24    14    27 1
    25    15    16 1
    26    15    28 1
    27    15    29 1
    28    16    17 1
    29    16    30 1
    30    16    31 1
    31    17    32 1
    32    17    33 1
    33    17    34 1
@<TRIPOS>SUBSTRUCTURE
     1 HHG         1 TEMP              0 ****  ****    0 ROOT
