@<TRIPOS>MOLECULE
HHH
   19    19     1     0     0
SMALL
bcc


@<TRIPOS>ATOM
      1 O12         0.0080   -0.8670    1.0260 o         1 HHH     -0.828300
      2 C10         1.0930   -0.5050    0.4970 c         1 HHH      0.903600
      3 O11         1.3500   -0.5290   -0.7390 o         1 HHH     -0.828300
      4 C7          2.2430   -0.0160    1.4300 c3        1 HHH      0.047400
      5 O8          3.4820    0.0030    0.7410 oh        1 HHH     -0.640800
      6 C1          1.9470    1.3210    2.0390 ca        1 HHH     -0.082300
      7 C2          0.6980    1.5390    2.6390 ca        1 HHH     -0.094000
      8 C3          0.4090    2.7560    3.2480 ca        1 HHH     -0.196500
      9 C6          2.8980    2.3470    2.0480 ca        1 HHH     -0.094000
     10 C5          2.6260    3.5730    2.6510 ca        1 HHH     -0.196500
     11 C4          1.3770    3.7690    3.2530 ca        1 HHH      0.082100
     12 O1          1.1570    4.9990    3.8500 oh        1 HHH     -0.522100
     13 H7          2.3700   -0.7650    2.2630 h1        1 HHH      0.053700
     14 HO8         3.2730    0.0210   -0.2080 ho        1 HHH      0.427000
     15 H2         -0.0570    0.7320    2.5910 ha        1 HHH      0.163000
     16 H3         -0.5720    2.9260    3.7120 ha        1 HHH      0.120000
     17 H6          3.8730    2.1730    1.5650 ha        1 HHH      0.163000
     18 H5          3.3690    4.3800    2.6590 ha        1 HHH      0.120000
     19 HO1         0.2430    5.0040    4.1630 ho        1 HHH      0.403000
@<TRIPOS>BOND
     1    1    2 1   
     2    2    3 1   
     3    2    4 1   
     4    4    5 1   
     5    4    6 1   
     6    4   13 1   
     7    5   14 1   
     8    6    7 ar  
     9    6    9 ar  
    10    7    8 ar  
    11    7   15 1   
    12    8   11 ar  
    13    8   16 1   
    14    9   10 ar  
    15    9   17 1   
    16   10   11 ar  
    17   10   18 1   
    18   11   12 1   
    19   12   19 1   
@<TRIPOS>SUBSTRUCTURE
     1 HHH         1 TEMP              0 ****  ****    0 ROOT
