@<TRIPOS>MOLECULE
molecule
   19    19     1     0     0
SMALL
bcc


@<TRIPOS>ATOM
      1 O12          0.0000     0.0000     0.0000 o          1 HHH      -0.829300
      2 C10          1.3430     0.0000     0.0000 c          1 HHH       0.883600
      3 O11          1.9470    -0.0010    -1.0450 o          1 HHH      -0.829300
      4 C7           2.0950     0.0000     1.3060 c3         1 HHH       0.073400
      5 O8           3.4950    -0.1180     1.0490 oh         1 HHH      -0.598800
      6 C1           1.8260     1.2890     2.0410 ca         1 HHH      -0.035300
      7 C2           0.8990     1.3180     3.0660 ca         1 HHH      -0.096500
      8 C3           0.6510     2.4980     3.7400 ca         1 HHH      -0.165000
      9 C6           2.5100     2.4390     1.6910 ca         1 HHH      -0.096500
     10 C5           2.2660     3.6200     2.3630 ca         1 HHH      -0.165000
     11 C4           1.3320     3.6540     3.3880 ca         1 HHH       0.066100
     12 O1           1.0910     4.8160     4.0510 oh         1 HHH      -0.539100
     13 H7           1.7670    -0.8360     1.9120 h1         1 HHH       0.026700
     14 HO8          3.8000    -0.9600     1.3460 ho         1 HHH       0.377000
     15 H2           0.3670     0.4160     3.3410 ha         1 HHH       0.143000
     16 H3          -0.0770     2.5220     4.5420 ha         1 HHH       0.119000
     17 H6           3.2390     2.4120     0.8900 ha         1 HHH       0.143000
     18 H5           2.8010     4.5210     2.0870 ha         1 HHH       0.119000
     19 HO1          0.3960     5.2850     3.6190 ho         1 HHH       0.404000
@<TRIPOS>BOND
     1     2     1 1
     2     3     2 1
     3     2     4 1
     4     4     5 1
     5     4     6 1
     6     4    13 1
     7     5    14 1
     8     9     6 ar
     9     6     7 ar
    10     7     8 ar
    11     7    15 1
    12    11     8 ar
    13     8    16 1
    14     9    10 ar
    15     9    17 1
    16    10    11 ar
    17    10    18 1
    18    11    12 1
    19    12    19 1
@<TRIPOS>SUBSTRUCTURE
     1 HHH         1 TEMP              0 ****  ****    0 ROOT
