@<TRIPOS>MOLECULE
HHO
   33    32     1     0     0
SMALL
bcc


@<TRIPOS>ATOM
      1 N            0.0000     0.0000     0.0000 n7         1 HHO      -0.568200
      2 C            1.4690     0.0000     0.0000 c3         1 HHO       0.379600
      3 O            1.9450     0.0000     1.3470 oh         1 HHO      -0.583800
      4 C1          -0.4220     1.4060    -0.0010 c3         1 HHO       0.133800
      5 C2          -1.9500     1.4820    -0.0020 c3         1 HHO      -0.031400
      6 C3          -2.3900     2.9460    -0.0010 c3         1 HHO      -0.027400
      7 C4          -3.9180     3.0210    -0.0020 c3         1 HHO      -0.028400
      8 C5          -4.3580     4.4850    -0.0020 c3         1 HHO      -0.027400
      9 C6          -5.8850     4.5600    -0.0030 c3         1 HHO      -0.025400
     10 C7          -6.3260     6.0240    -0.0030 c3         1 HHO      -0.039400
     11 C8          -7.8530     6.0990    -0.0030 c3         1 HHO       0.225400
     12 O8          -8.2650     7.4670    -0.0030 oh         1 HHO      -0.594800
     13 HN          -0.3340    -0.4490    -0.8300 hn         1 HHO       0.253800
     14 H1           1.8300    -0.8850    -0.5110 h2         1 HHO      -0.020300
     15 H2           1.8310     0.8840    -0.5110 h2         1 HHO      -0.020300
     16 HO           2.8010    -0.3950     1.3780 ho         1 HHO       0.389000
     17 H11         -0.0370     1.8990     0.8840 h1         1 HHO       0.012700
     18 H12         -0.0360     1.8990    -0.8850 h1         1 HHO       0.012700
     19 H21         -2.3370     0.9890     0.8820 hc         1 HHO       0.019200
     20 H22         -2.3360     0.9900    -0.8860 hc         1 HHO       0.019200
     21 H31         -2.0050     3.4380     0.8840 hc         1 HHO       0.014700
     22 H32         -2.0040     3.4390    -0.8850 hc         1 HHO       0.014700
     23 H41         -4.3030     2.5280     0.8830 hc         1 HHO       0.015200
     24 H42         -4.3030     2.5280    -0.8860 hc         1 HHO       0.015200
     25 H51         -3.9730     4.9780     0.8820 hc         1 HHO       0.015700
     26 H52         -3.9720     4.9780    -0.8870 hc         1 HHO       0.015700
     27 H61         -6.2700     4.0680    -0.8880 hc         1 HHO       0.013200
     28 H62         -6.2710     4.0670     0.8810 hc         1 HHO       0.013200
     29 H71         -5.9410     6.5170     0.8820 hc         1 HHO       0.023700
     30 H72         -5.9400     6.5180    -0.8870 hc         1 HHO       0.023700
     31 H81         -8.2380     5.6070    -0.8880 h1         1 HHO      -0.016800
     32 H82         -8.2390     5.6060     0.8810 h1         1 HHO      -0.016800
     33 HO8         -9.2060     7.5110    -0.0040 ho         1 HHO       0.389000
@<TRIPOS>BOND
     1     1     2 1   
     2     1     4 1   
     3     1    13 1   
     4     2     3 1   
     5     2    14 1   
     6     2    15 1   
     7     3    16 1   
     8     4     5 1   
     9     4    17 1   
    10     4    18 1   
    11     5     6 1   
    12     5    19 1   
    13     5    20 1   
    14     6     7 1   
    15     6    21 1   
    16     6    22 1   
    17     7     8 1   
    18     7    23 1   
    19     7    24 1   
    20     8     9 1   
    21     8    25 1   
    22     8    26 1   
    23     9    10 1   
    24     9    27 1   
    25     9    28 1   
    26    10    11 1   
    27    10    29 1   
    28    10    30 1   
    29    11    12 1   
    30    11    31 1   
    31    11    32 1   
    32    12    33 1   
@<TRIPOS>SUBSTRUCTURE
     1 HHO         1 TEMP              0 ****  ****    0 ROOT
