@<TRIPOS>MOLECULE
HHP
   23    24     1     0     0
SMALL
bcc


@<TRIPOS>ATOM
      1 C7          0.0090    0.2120   -0.0850 c3        1 HHP      0.158500
      2 N8          1.3230   -0.3440    0.1210 nh        1 HHP     -0.751000
      3 C9          1.9850   -0.1840    1.3180 cc        1 HHP      0.454600
      4 N1          3.2810   -0.6850    1.4190 nc        1 HHP     -0.742300
      5 C2          3.9010   -0.5740    2.6180 cd        1 HHP      0.723800
      6 N2          5.1590   -1.1800    2.7730 nh        1 HHP     -0.906800
      7 C10         1.3260    0.4780    2.3970 cd        1 HHP     -0.190600
      8 C4          2.0200    0.6110    3.6720 c         1 HHP      0.751700
      9 N3          3.3360    0.0680    3.7230 n         1 HHP     -0.511400
     10 O4          1.6120    1.1420    4.7160 o         1 HHP     -0.605500
     11 N5          0.0400    1.0040    2.2850 nf        1 HHP     -0.459300
     12 C6         -0.5710    0.8880    1.1430 c2        1 HHP      0.284300
     13 C6A        -1.9660    1.4260    0.9380 c3        1 HHP      0.114100
     14 O6A        -2.0940    2.7890    1.2740 oh        1 HHP     -0.594800
     15 H71        -0.6840   -0.6220   -0.4040 h1        1 HHP      0.047700
     16 H72         0.0520    0.9650   -0.9270 h1        1 HHP      0.047700
     17 HN8         1.7830   -0.7550   -0.6580 hn        1 HHP      0.454800
     18 HN21        5.5870   -1.5180    1.9400 hn        1 HHP      0.431300
     19 HN22        5.7750   -0.7780    3.4400 hn        1 HHP      0.431300
     20 HN3         3.8120    0.1030    4.5980 hn        1 HHP      0.334500
     21 H6A1       -2.2400    1.3790   -0.1520 h1        1 HHP      0.052700
     22 H6A2       -2.6930    0.8070    1.5340 h1        1 HHP      0.052700
     23 HO6        -1.8380    2.8920    2.2000 ho        1 HHP      0.421000
@<TRIPOS>BOND
     1    1    2 1
     2    1   12 1
     3    1   15 1
     4    1   16 1
     5    2    3 1
     6    2   17 1
     7    3    4 1
     8    3    7 2
     9    4    5 2
    10    5    6 1
    11    5    9 1
    12    6   18 1
    13    6   19 1
    14    7    8 1
    15    7   11 1
    16    8    9 1
    17    8   10 2
    18    9   20 1
    19   11   12 2
    20   12   13 1
    21   13   14 1
    22   13   21 1
    23   13   22 1
    24   14   23 1
@<TRIPOS>SUBSTRUCTURE
     1 HHP         1 TEMP              0 ****  ****    0 ROOT
