@<TRIPOS>MOLECULE
HHR
   21    22     1     0     0
SMALL
bcc


@<TRIPOS>ATOM
      1 C7          0.0060   -0.1270   -0.0230 ca        1 HHR      0.361900
      2 N8          1.3330   -0.1400   -0.0660 nb        1 HHR     -0.627000
      3 C9          1.9940   -0.0610    1.1500 ca        1 HHR      0.567000
      4 N1          3.3890   -0.0660    1.1460 nc        1 HHR     -0.737700
      5 C2          4.0220   -0.0180    2.3320 cd        1 HHR      0.689800
      6 N2          5.4260   -0.1570    2.3550 nh        1 HHR     -0.893800
      7 C10         1.2300    0.0340    2.3710 ca        1 HHR      0.169500
      8 C4          1.9580    0.1170    3.6600 c         1 HHR      0.622000
      9 N3          3.3640    0.1090    3.5710 n         1 HHR     -0.512400
     10 O4          1.4560    0.2000    4.7890 o         1 HHR     -0.579500
     11 N5         -0.1310    0.0450    2.3880 nb        1 HHR     -0.563000
     12 C6         -0.7470   -0.0360    1.1990 ca        1 HHR      0.252300
     13 C6A        -2.2520   -0.0410    1.1610 c3        1 HHR      0.089100
     14 O6A        -2.6580    0.0420   -0.1980 oh        1 HHR     -0.608800
     15 H71        -0.5240   -0.1880   -0.9940 h4        1 HHR      0.061100
     16 HN21        5.9040    0.3650    3.0540 hn        1 HHR      0.426800
     17 HN22        5.8640   -0.1490    1.4580 hn        1 HHR      0.426800
     18 HN3         3.8790    0.1050    4.4250 hn        1 HHR      0.338500
     19 H6A1       -2.6600    0.8350    1.7380 h1        1 HHR      0.052200
     20 H6A2       -2.6390   -0.9960    1.6140 h1        1 HHR      0.052200
     21 HO6        -3.6210    0.0940   -0.1880 ho        1 HHR      0.413000
@<TRIPOS>BOND
     1    1    2 ar
     2    1   12 ar
     3    1   15 1
     4    2    3 ar
     5    3    4 1
     6    3    7 ar
     7    4    5 2
     8    5    6 1
     9    5    9 1
    10    6   16 1
    11    6   17 1
    12    7    8 1
    13    7   11 ar
    14    8    9 1
    15    8   10 2
    16    9   18 1
    17   11   12 ar
    18   12   13 1
    19   13   14 1
    20   13   19 1
    21   13   20 1
    22   14   21 1
@<TRIPOS>SUBSTRUCTURE
     1 HHR         1 TEMP              0 ****  ****    0 ROOT
