@<TRIPOS>MOLECULE
HHS
   20    21     1     0     0
SMALL
bcc


@<TRIPOS>ATOM
      1 N1           0.0000     0.0000     0.0000 nc         1 HHS      -0.399700
      2 C2           1.3120     0.0000     0.0000 cd         1 HHS      -0.062200
      3 N2           1.9620    -0.0010    -1.2050 nz         1 HHS       0.227400
      4 N3           2.0580     0.0000     1.1400 ns         1 HHS      -0.035400
      5 C4           1.4570     0.0000     2.3520 c          1 HHS       0.498000
      6 O4           2.1090     0.0010     3.3800 o          1 HHS      -0.554500
      7 N5          -0.6900    -0.0000     3.5180 nb         1 HHS      -0.420000
      8 C6A         -2.0170     0.0000     3.4940 ca         1 HHS       0.355500
      9 O6A         -2.1200    -0.0000     5.9400 o          1 HHS      -0.807800
     10 O6B         -3.9900    -0.0000     4.7440 o          1 HHS      -0.807800
     11 C6          -2.7760    -0.0000     4.7630 c          1 HHS       0.831100
     12 C7          -2.7030     0.0000     2.2700 ca         1 HHS       0.346900
     13 N8          -2.0430     0.0010     1.1320 nb         1 HHS      -0.539000
     14 C9          -0.7070     0.0010     1.1430 ca         1 HHS       0.318000
     15 C10         -0.0180     0.0000     2.3810 ca         1 HHS       0.232500
     16 HN2          2.5360    -0.8180    -1.2730 hn         1 HHS       0.205800
     17 HN2A         1.2900    -0.0010    -1.9460 hn         1 HHS       0.205800
     18 HN3          3.0570     0.0000     1.0800 hn         1 HHS       0.174500
     19 H7          -3.7530    -0.0000     2.0010 h4         1 HHS       0.024100
     20 H23          2.5360     0.8160    -1.2750 hn         1 HHS       0.205800
@<TRIPOS>BOND
     1     1     2 2   
     2     1    14 1   
     3     2     3 1   
     4     2     4 1   
     5     3    16 1   
     6     3    17 1   
     7     3    20 1   
     8     4     5 1   
     9     4    18 1   
    10     5     6 2   
    11     5    15 1   
    12     7     8 ar  
    13     7    15 ar  
    14     8    11 1   
    15     8    12 ar  
    16     9    11 1   
    17    10    11 1   
    18    12    13 ar  
    19    12    19 1   
    20    13    14 ar  
    21    14    15 ar  
@<TRIPOS>SUBSTRUCTURE
     1 HHS         1 TEMP              0 ****  ****    0 ROOT
