@<TRIPOS>MOLECULE
molecule
   20    21     1     0     0
SMALL
bcc


@<TRIPOS>ATOM
      1 N1           0.0000     0.0000     0.0000 nc         1 HHS      -0.596700
      2 C2           1.3120     0.0000     0.0000 cd         1 HHS       0.413800
      3 N2           1.9620    -0.0010    -1.2050 nz         1 HHS      -0.723600
      4 N3           2.0580     0.0000     1.1400 ns         1 HHS      -0.487400
      5 C4           1.4570     0.0000     2.3520 c          1 HHS       0.601000
      6 O4           2.1090     0.0010     3.3800 o          1 HHS      -0.514500
      7 N5          -0.6900    -0.0000     3.5180 nb         1 HHS      -0.551000
      8 C6A         -2.0170     0.0000     3.4940 ca         1 HHS       0.386500
      9 O6A         -2.1200    -0.0000     5.9400 o          1 HHS      -0.759300
     10 O6B         -3.9900    -0.0000     4.7440 o          1 HHS      -0.759300
     11 C6          -2.7760    -0.0000     4.7630 c          1 HHS       0.759100
     12 C7          -2.7030     0.0000     2.2700 ca         1 HHS       0.360900
     13 N8          -2.0430     0.0010     1.1320 nb         1 HHS      -0.642000
     14 C9          -0.7070     0.0010     1.1430 ca         1 HHS       0.439000
     15 C10         -0.0180     0.0000     2.3810 ca         1 HHS       0.269500
     16 HN2          2.5360    -0.8180    -1.2730 hn         1 HHS       0.467800
     17 HN2A         1.2900    -0.0010    -1.9460 hn         1 HHS       0.467800
     18 HN3          3.0570     0.0000     1.0800 hn         1 HHS       0.329500
     19 H7          -3.7530    -0.0000     2.0010 h4         1 HHS       0.074100
     20 H23          2.5360     0.8160    -1.2750 hn         1 HHS       0.467800
@<TRIPOS>BOND
     1    14     1 1
     2     1     2 2
     3     2     4 1
     4     2     3 1
     5     3    16 1
     6     3    17 1
     7     5     4 1
     8     4    18 1
     9    15     5 1
    10     5     6 2
    11     8     7 ar
    12     7    15 ar
    13    11     8 1
    14    12     8 ar
    15    11     9 1
    16    10    11 1
    17    12    13 ar
    18    12    19 1
    19    13    14 ar
    20    14    15 ar
    21    20     3 1
@<TRIPOS>SUBSTRUCTURE
     1 HHS         1 TEMP              0 ****  ****    0 ROOT
