@<TRIPOS>MOLECULE
molecule
   28    29     1     0     0
SMALL
bcc


@<TRIPOS>ATOM
      1 C01          0.0000     0.0000     0.0000 cc         1 HHV      -0.517900
      2 C02          1.3930     0.0000     0.0000 cd         1 HHV       0.317300
      3 N03          1.7890     0.0000     1.2890 na         1 HHV      -0.058600
      4 N04          0.6520     0.0010     2.1030 nd         1 HHV      -0.430800
      5 C05         -0.4130     0.0000     1.3530 cc         1 HHV       0.363200
      6 N06          2.2130    -0.0010    -1.1100 nu         1 HHV      -0.763600
      7 C07          3.6690    -0.0000    -0.9450 c3         1 HHV       0.270100
      8 C08          4.3280    -0.0010    -2.3000 ca         1 HHV      -0.273600
      9 C09          4.6330     1.1890    -2.9310 ca         1 HHV       0.447200
     10 N10          5.2090     1.1970    -4.1170 nb         1 HHV      -0.676000
     11 C11          5.5160     0.0780    -4.7460 ca         1 HHV       0.451200
     12 C12          5.2400    -1.1500    -4.1770 ca         1 HHV      -0.249300
     13 C13          4.6400    -1.1980    -2.9280 ca         1 HHV      -0.068000
     14 C14         -0.8730     0.0040    -1.1800 c          1 HHV       0.544700
     15 O15         -0.3880     0.0030    -2.2950 o          1 HHV      -0.494100
     16 N16         -2.2130     0.0100    -1.0270 nz         1 HHV      -0.668400
     17 H05         -1.4380     0.0000     1.7040 h4         1 HHV       0.045100
     18 HN06         1.8140     0.0200    -2.0280 hn         1 HHV       0.491800
     19 H07          3.9700     0.8850    -0.3980 h1         1 HHV       0.059700
     20 H07A         3.9700    -0.8850    -0.3960 h1         1 HHV       0.059700
     21 H09          4.3960     2.1280    -2.4450 h4         1 HHV       0.027100
     22 H11          5.9860     0.1240    -5.7200 h4         1 HHV       0.041100
     23 H12          5.4970    -2.0650    -4.6980 ha         1 HHV       0.155000
     24 H13          4.4130    -2.1470    -2.4580 ha         1 HHV       0.143000
     25 HN16        -2.4870     0.8270    -0.5180 hn         1 HHV       0.473800
     26 HN1A        -2.6520     0.0130    -1.9260 hn         1 HHV       0.473800
     27 HN03         2.7380     0.0000     1.6090 hn         1 HHV       0.360700
     28 H163        -2.4940    -0.8070    -0.5210 hn         1 HHV       0.473800
@<TRIPOS>BOND
     1    14     1 1
     2     1     5 1
     3     1     2 2
     4     2     6 1
     5     2     3 1
     6     4     3 1
     7     5     4 2
     8     5    17 1
     9     6     7 1
    10     6    18 1
    11     7     8 1
    12     7    19 1
    13     7    20 1
    14    13     8 ar
    15     8     9 ar
    16     9    10 ar
    17     9    21 1
    18    11    10 ar
    19    12    11 ar
    20    11    22 1
    21    13    12 ar
    22    12    23 1
    23    13    24 1
    24    16    14 1
    25    14    15 2
    26    16    25 1
    27    16    26 1
    28     3    27 1
    29    28    16 1
@<TRIPOS>SUBSTRUCTURE
     1 HHV         1 TEMP              0 ****  ****    0 ROOT
