@<TRIPOS>MOLECULE
molecule
   92    95     1     0     0
SMALL
bcc


@<TRIPOS>ATOM
      1 C23          0.0000     0.0000     0.0000 ca         1 HI1      -0.078300
      2 C14         -1.9020     1.2500    -3.1800 c3         1 HI1      -0.097400
      3 C24          1.3830     0.0000     0.0000 ca         1 HI1      -0.115000
      4 C1          -1.0570     1.4060    -1.8910 c3         1 HI1       0.090800
      5 C25          2.0630     0.0000     1.2190 ca         1 HI1      -0.124000
      6 C26          1.3490    -0.0010     2.4160 ca         1 HI1      -0.127000
      7 C27         -0.0460    -0.0010     2.3960 ca         1 HI1      -0.124000
      8 C28         -0.7260    -0.0010     1.1790 ca         1 HI1      -0.115000
      9 C33         -3.6340     2.6280    -7.9160 ca         1 HI1      -0.073300
     10 C34         -2.8990     3.3510    -8.8480 ca         1 HI1      -0.112000
     11 C35         -2.1720     2.6750    -9.8270 ca         1 HI1      -0.104000
     12 C36         -2.1830     1.2800    -9.8670 ca         1 HI1      -0.017900
     13 C37         -2.9230     0.5620    -8.9290 ca         1 HI1      -0.104000
     14 C38         -3.6510     1.2370    -7.9490 ca         1 HI1      -0.112000
     15 C32         -4.4160     3.3550    -6.8620 c3         1 HI1       0.178100
     16 C7          -1.9990     6.4860     0.6590 c3         1 HI1       0.141700
     17 C4          -3.1780     2.3210    -5.0770 c3         1 HI1       0.140800
     18 O3          -3.5380     4.9590    -0.9530 o          1 HI1      -0.569000
     19 N1          -3.9730     6.8000    -2.2960 ns         1 HI1      -0.569900
     20 C22         -0.7380     0.0010    -1.3220 c3         1 HI1      -0.066100
     21 O6          -1.8430     2.0930    -0.9170 oh         1 HI1      -0.556800
     22 O8          -2.6450     7.0250    -0.5000 os         1 HI1      -0.435900
     23 C10          0.2230     2.2240    -2.1370 c          1 HI1       0.690100
     24 O11          0.4250     3.2980    -1.5700 o          1 HI1      -0.556100
     25 N12          1.1010     1.6400    -3.0370 ns         1 HI1      -0.572900
     26 C51          2.3510     2.2440    -3.4000 c3         1 HI1       0.179000
     27 C52          3.4100     1.2750    -3.8420 ca         1 HI1      -0.107300
     28 C57          4.1530     1.8140    -4.9020 ca         1 HI1      -0.078300
     29 C53          3.7370     0.0380    -3.3070 ca         1 HI1      -0.110000
     30 C54          4.8080    -0.6670    -3.8620 ca         1 HI1      -0.132000
     31 C55          5.5460    -0.1260    -4.9250 ca         1 HI1      -0.124000
     32 C59          2.2540     3.1680    -4.6340 c3         1 HI1       0.125100
     33 O60          1.3200     2.6390    -5.5780 oh         1 HI1      -0.599800
     34 C30         -3.3940     6.1450    -1.2300 c          1 HI1       0.759100
     35 C56          5.2250     1.1270    -5.4490 ca         1 HI1      -0.116000
     36 C58          3.6530     3.1780    -5.2760 c3         1 HI1      -0.076100
     37 C41         -4.8470     6.1600    -3.2510 c3         1 HI1       0.066700
     38 C42         -5.9120     7.1310    -3.8420 c3         1 HI1      -0.071000
     39 C43         -6.7440     7.7430    -2.6950 c3         1 HI1      -0.085100
     40 C44         -5.2290     8.2920    -4.5930 c3         1 HI1      -0.085100
     41 C45         -3.9210     5.5310    -4.2920 c          1 HI1       0.670100
     42 N24         -3.6240     3.5870    -5.6550 n3         1 HI1      -0.421600
     43 O46         -2.8830     6.0710    -4.6720 o          1 HI1      -0.549100
     44 N47         -4.3760     4.2940    -4.7230 ns         1 HI1      -0.483300
     45 Br          -1.1980     0.3640   -11.1940 br         1 HI1      -0.094100
     46 C86         -6.8740     6.4220    -4.8140 c3         1 HI1      -0.085100
     47 H401        -1.5070     3.1810    -4.0430 hc         1 HI1       0.076700
     48 H402        -2.9910     3.1030    -3.0890 hc         1 HI1       0.076700
     49 H141        -1.3100     0.7180    -3.9140 hc         1 HI1       0.039200
     50 H142        -2.7760     0.6540    -2.9460 hc         1 HI1       0.039200
     51 H4C1        -2.5580     1.7990    -5.7950 h1         1 HI1       0.038700
     52 H4C2        -4.0410     1.7120    -4.8390 h1         1 HI1       0.038700
     53 H221        -1.6710    -0.5340    -1.1910 hc         1 HI1       0.048700
     54 H222        -0.1370    -0.5330    -2.0480 hc         1 HI1       0.048700
     55 H6          -2.5430     1.5340    -0.6260 ho         1 HI1       0.400000
     56 H24          1.9320     0.0010    -0.9340 ha         1 HI1       0.129500
     57 H28         -1.8090    -0.0010     1.1560 ha         1 HI1       0.129500
     58 H25          3.1460     0.0000     1.2340 ha         1 HI1       0.129500
     59 H26          1.8770    -0.0010     3.3610 ha         1 HI1       0.129000
     60 H27         -0.6010    -0.0020     3.3260 ha         1 HI1       0.129500
     61 H12          0.8530     0.7630    -3.4510 hn         1 HI1       0.321500
     62 H51          2.7280     2.8170    -2.5610 h1         1 HI1       0.091700
     63 H321        -4.7400     4.3090    -7.2590 h1         1 HI1       0.043700
     64 H322        -5.2890     2.7670    -6.6020 h1         1 HI1       0.043700
     65 H47         -5.3070     3.9990    -4.5040 hn         1 HI1       0.302500
     66 H59          1.9710     4.1700    -4.3330 h1         1 HI1       0.057700
     67 H53          3.1670    -0.3780    -2.4850 ha         1 HI1       0.133000
     68 H54          5.0710    -1.6410    -3.4670 ha         1 HI1       0.131000
     69 H55          6.3740    -0.6870    -5.3440 ha         1 HI1       0.130000
     70 H56          5.7920     1.5480    -6.2700 ha         1 HI1       0.135000
     71 H581         4.2740     3.9510    -4.8400 hc         1 HI1       0.063700
     72 H582         3.5840     3.2830    -6.3520 hc         1 HI1       0.063700
     73 H60          1.4160     3.0880    -6.4020 ho         1 HI1       0.405000
     74 H34         -2.8920     4.4330    -8.8140 ha         1 HI1       0.142000
     75 H38         -4.2270     0.6820    -7.2190 ha         1 HI1       0.142000
     76 H35         -1.5970     3.2330   -10.5570 ha         1 HI1       0.145000
     77 H37         -2.9320    -0.5210    -8.9600 ha         1 HI1       0.145000
     78 H41         -5.3720     5.3610    -2.7420 h1         1 HI1       0.075700
     79 H431        -7.1270     6.9500    -2.0640 hc         1 HI1       0.041256
     80 H432        -7.5720     8.3060    -3.1090 hc         1 HI1       0.041256
     81 H433        -6.1180     8.4020    -2.1060 hc         1 HI1       0.041256
     82 H441        -5.9830     8.9670    -4.9790 hc         1 HI1       0.041256
     83 H442        -4.5790     8.8290    -3.9120 hc         1 HI1       0.041256
     84 H443        -4.6440     7.8960    -5.4140 hc         1 HI1       0.041256
     85 H861        -7.2220     5.4980    -4.3680 hc         1 HI1       0.041256
     86 H862        -6.3560     6.2030    -5.7400 hc         1 HI1       0.041256
     87 H863        -7.7210     7.0650    -5.0180 hc         1 HI1       0.041256
     88 H7C1        -1.1650     5.8670     0.3520 h1         1 HI1       0.051700
     89 H7C2        -1.6380     7.2960     1.2810 h1         1 HI1       0.051700
     90 H7C3        -2.7060     5.8870     1.2200 h1         1 HI1       0.051700
     91 H1          -3.7590     7.7690    -2.4270 hn         1 HI1       0.334500
     92 C40         -2.3720     2.5740    -3.8030 c3         1 HI1      -0.075400
@<TRIPOS>BOND
     1    20     1 1
     2    92     2 1
     3     1     3 ar
     4     2     4 1
     5     3     5 ar
     6     5     6 ar
     7     6     7 ar
     8     1     8 ar
     9     7     8 ar
    10    15     9 1
    11     9    10 ar
    12    10    11 ar
    13    11    12 ar
    14    12    13 ar
    15     9    14 ar
    16    13    14 ar
    17    42    15 1
    18    92    17 1
    19    34    18 2
    20    34    19 1
    21     4    20 1
    22     4    21 1
    23    16    22 1
    24     4    23 1
    25    25    23 1
    26    23    24 2
    27    25    26 1
    28    26    27 1
    29    27    28 ar
    30    35    28 ar
    31    27    29 ar
    32    29    30 ar
    33    30    31 ar
    34    26    32 1
    35    36    32 1
    36    32    33 1
    37    22    34 1
    38    31    35 ar
    39    28    36 1
    40    38    37 1
    41    19    37 1
    42    38    39 1
    43    41    43 2
    44    42    44 1
    45    41    44 1
    46    12    45 1
    47    38    46 1
    48    92    47 1
    49    92    48 1
    50     2    49 1
    51     2    50 1
    52    17    51 1
    53    17    52 1
    54    20    53 1
    55    20    54 1
    56    21    55 1
    57     3    56 1
    58     8    57 1
    59     5    58 1
    60     6    59 1
    61     7    60 1
    62    25    61 1
    63    26    62 1
    64    15    63 1
    65    15    64 1
    66    44    65 1
    67    32    66 1
    68    29    67 1
    69    30    68 1
    70    31    69 1
    71    35    70 1
    72    36    71 1
    73    36    72 1
    74    33    73 1
    75    10    74 1
    76    14    75 1
    77    11    76 1
    78    13    77 1
    79    37    78 1
    80    39    79 1
    81    39    80 1
    82    39    81 1
    83    40    82 1
    84    40    83 1
    85    40    84 1
    86    46    85 1
    87    46    86 1
    88    46    87 1
    89    16    88 1
    90    16    89 1
    91    16    90 1
    92    19    91 1
    93    38    40 1
    94    37    41 1
    95    17    42 1
@<TRIPOS>SUBSTRUCTURE
     1 HI1         1 TEMP              0 ****  ****    0 ROOT
