@<TRIPOS>MOLECULE
HI3
   56    60     1     0     0
SMALL
bcc


@<TRIPOS>ATOM
      1 C1           0.0000     0.0000     0.0000 ca         1 HI3      -0.097000
      2 F1          -2.0420     0.0020     1.2010 f          1 HI3      -0.118900
      3 N1           2.4710    -1.3750     4.0740 na         1 HI3       0.432600
      4 O1           0.8040    -5.4730     3.7580 o          1 HI3      -0.670500
      5 S1          -1.3620    -0.9950     7.0590 s6         1 HI3       0.985600
      6 C2           1.3820     0.0000     0.0000 ca         1 HI3      -0.106000
      7 F2           3.4260     0.0000     1.1980 f          1 HI3      -0.125900
      8 N2           0.5410    -6.6840     5.6050 ns         1 HI3       0.087900
      9 O2          -0.6750    -2.2080     4.6170 o          1 HI3      -0.572100
     10 C3           4.6850    -4.1760     4.1410 ca         1 HI3      -0.016000
     11 N3           0.1530    -1.2580     6.4470 ns         1 HI3      -0.312300
     12 O3          -1.1330    -0.2860     8.2690 o          1 HI3      -0.565300
     13 C4           0.0010     0.0010     2.3980 ca         1 HI3      -0.080000
     14 O4          -2.0750    -0.3980     5.9840 o          1 HI3      -0.565300
     15 C5           4.8000    -1.5970     3.0940 ca         1 HI3      -0.139000
     16 C6           3.6010    -3.3090     4.3040 ca         1 HI3      -0.097800
     17 C7           2.2920    -3.4410     4.9550 cc         1 HI3      -0.004200
     18 C8           5.7970    -3.7550     3.4690 ca         1 HI3      -0.145300
     19 C9           1.3830     0.0010     2.3980 ca         1 HI3      -0.145300
     20 C10          3.6560    -2.0070     3.7750 ca         1 HI3      -0.184200
     21 C11         -0.6920     0.0010     1.2000 ca         1 HI3       0.108900
     22 C12          2.0750     0.0000     1.1980 ca         1 HI3       0.110900
     23 C13          5.8590    -2.4690     2.9440 ca         1 HI3       0.129900
     24 C14          1.6450    -2.2270     4.7830 cd         1 HI3      -0.304300
     25 C15          1.4750    -5.9410     7.6430 cd         1 HI3      -0.218000
     26 C16          1.9870    -4.8020     7.0150 cd         1 HI3      -0.020000
     27 C17          0.7680    -6.8520     6.9320 cc         1 HI3      -0.141400
     28 C18          1.7680    -4.6290     5.6540 cc         1 HI3      -0.142200
     29 C19          1.0170    -5.6070     4.9510 c          1 HI3       0.576700
     30 C20          0.3050    -1.9010     5.2720 c          1 HI3       0.689300
     31 C21         -3.0780    -3.2080     6.4660 cx         1 HI3      -0.005900
     32 C22         -3.4560    -2.7670     7.8810 cx         1 HI3      -0.005900
     33 C23         -2.0050    -2.6560     7.4060 cx         1 HI3      -0.124900
     34 C24          6.9650    -4.6910     3.2960 c3         1 HI3       0.073200
     35 C25          2.1370     0.0020     3.7020 c3         1 HI3       0.017600
     36 H1          -0.5420     0.0000    -0.9380 ha         1 HI3       0.122000
     37 H2           1.9230    -0.0010    -0.9380 ha         1 HI3       0.124000
     38 H3           4.6440    -5.1800     4.5470 ha         1 HI3       0.109000
     39 HN3          0.9580    -0.9410     6.9500 hn         1 HI3       0.236500
     40 H4          -0.5400     0.0020     3.3360 ha         1 HI3       0.146000
     41 H5           4.8910    -0.5720     2.7560 ha         1 HI3       0.130000
     42 H15          1.6400    -6.0930     8.7030 ha         1 HI3       0.123000
     43 H16          2.5530    -4.0700     7.5780 ha         1 HI3       0.111000
     44 H17          0.3750    -7.7290     7.4310 h4         1 HI3       0.122000
     45 H21A        -3.3890    -2.5430     5.6700 hc         1 HI3       0.055700
     46 H22         -3.6580    -3.5680     8.5820 hc         1 HI3       0.055700
     47 H22A        -3.9990    -1.8320     7.9490 hc         1 HI3       0.055700
     48 H23         -1.3350    -3.4010     7.8170 h1         1 HI3       0.093700
     49 H24          6.7410    -5.6390     3.7680 hc         1 HI3       0.009367
     50 H24A         7.8460    -4.2580     3.7550 hc         1 HI3       0.009367
     51 H24B         7.1480    -4.8470     2.2400 hc         1 HI3       0.009367
     52 H25          1.5210     0.4460     4.4750 h1         1 HI3       0.042700
     53 H25A         3.0480     0.5780     3.5920 h1         1 HI3       0.042700
     54 H20          0.0160    -7.3720     5.1040 hn         1 HI3       0.170500
     55 F3           6.9660    -2.0680     2.2820 f          1 HI3      -0.128900
     56 H21         -3.0490    -4.2790     6.3030 hc         1 HI3       0.055700
@<TRIPOS>BOND
     1     1     6 ar  
     2     1    21 ar  
     3     1    36 1   
     4     2    21 1   
     5     3    20 1   
     6     3    24 1   
     7     3    35 1   
     8     4    29 2   
     9     5    11 1   
    10     5    12 2   
    11     5    14 2   
    12     5    33 1   
    13     6    22 ar  
    14     6    37 1   
    15     7    22 1   
    16     8    27 1   
    17     8    29 1   
    18     8    54 1   
    19     9    30 2   
    20    10    16 ar  
    21    10    18 ar  
    22    10    38 1   
    23    11    30 1   
    24    11    39 1   
    25    13    19 ar  
    26    13    21 ar  
    27    13    40 1   
    28    15    20 ar  
    29    15    23 ar  
    30    15    41 1   
    31    16    17 1   
    32    16    20 ar  
    33    17    24 2   
    34    17    28 1   
    35    18    23 ar  
    36    18    34 1   
    37    19    22 ar  
    38    19    35 1   
    39    23    55 1   
    40    24    30 1   
    41    25    26 1   
    42    25    27 2   
    43    25    42 1   
    44    26    28 2   
    45    26    43 1   
    46    27    44 1   
    47    28    29 1   
    48    31    32 1   
    49    31    33 1   
    50    31    45 1   
    51    31    56 1   
    52    32    33 1   
    53    32    46 1   
    54    32    47 1   
    55    33    48 1   
    56    34    49 1   
    57    34    50 1   
    58    34    51 1   
    59    35    52 1   
    60    35    53 1   
@<TRIPOS>SUBSTRUCTURE
     1 HI3         1 TEMP              0 ****  ****    0 ROOT
