@<TRIPOS>MOLECULE
HI4
   49    52     1     0     0
SMALL
bcc


@<TRIPOS>ATOM
      1 C1           0.0000     0.0000     0.0000 ca         1 HI4      -0.143300
      2 N1          -1.2060    -1.3520    -1.6140 na         1 HI4       0.437600
      3 O1           1.4590    -0.8750    -2.7630 o          1 HI4      -0.873800
      4 C2           1.3820     0.0000     0.0000 ca         1 HI4       0.046000
      5 N2          -0.7390    -5.9960    -5.1520 ns         1 HI4       0.082900
      6 O2          -1.7090    -3.9950    -5.1460 o          1 HI4      -0.703500
      7 C3           2.0730     0.0000     1.1970 ca         1 HI4      -0.479200
      8 N3           3.5540    -0.0010     1.1950 no         1 HI4       1.050200
      9 O3           1.3870    -2.9560    -3.5400 o          1 HI4      -0.873800
     10 C4           1.3840    -0.0000     2.3950 ca         1 HI4      -0.003000
     11 O4           4.1620    -0.0000     0.1400 o          1 HI4      -0.455500
     12 C5           0.0020     0.0010     2.3980 ca         1 HI4      -0.178000
     13 O5           4.1640    -0.0010     2.2500 o          1 HI4      -0.455500
     14 C6          -0.6920    -0.0000     1.2000 ca         1 HI4       0.157900
     15 C7          -0.8210    -4.6830    -3.1540 cc         1 HI4      -0.030200
     16 C8          -3.6090    -3.9880    -1.4600 ca         1 HI4      -0.046000
     17 C9          -4.6440    -3.4690    -0.7320 ca         1 HI4      -0.146300
     18 C10         -2.4800    -3.2060    -1.7150 ca         1 HI4      -0.078800
     19 C11         -2.4100    -1.8900    -1.2240 ca         1 HI4      -0.228200
     20 C12         -0.4870    -2.2790    -2.3460 cd         1 HI4      -0.217300
     21 C13         -1.2260    -3.4490    -2.4410 cc         1 HI4      -0.088200
     22 C14         -4.5810    -2.1700    -0.2460 ca         1 HI4      -0.107000
     23 C15         -3.4780    -1.3830    -0.4860 ca         1 HI4      -0.115000
     24 C16          0.8380    -2.0620    -2.9240 c          1 HI4       1.005800
     25 C17         -0.7540     0.0060    -1.3040 c3         1 HI4      -0.015400
     26 C18         -1.1160    -4.8640    -4.5290 c          1 HI4       0.587700
     27 C19         -0.0790    -6.9740    -4.4830 cc         1 HI4      -0.186400
     28 C20          0.2280    -6.8430    -3.1690 cd         1 HI4      -0.186000
     29 C21         -0.1350    -5.6840    -2.4770 cd         1 HI4      -0.045000
     30 C22         -5.8610    -4.3140    -0.4580 c3         1 HI4       0.043900
     31 C23         -5.6640    -5.0840     0.8490 c3         1 HI4       0.005900
     32 H2           1.9240     0.0000    -0.9380 ha         1 HI4       0.215000
     33 HN2         -0.9530    -6.1190    -6.1220 hn         1 HI4       0.152500
     34 H4           1.9280    -0.0000     3.3320 ha         1 HI4       0.123000
     35 H5          -0.5380     0.0010     3.3370 ha         1 HI4       0.118000
     36 F1          -2.0430     0.0010     1.2010 f          1 HI4      -0.123900
     37 H8          -3.6650    -5.0020    -1.8360 ha         1 HI4       0.096000
     38 H14         -5.4090    -1.7730     0.3280 ha         1 HI4       0.090000
     39 H15         -3.4400    -0.3710    -0.1010 ha         1 HI4       0.111000
     40 H17         -0.1030     0.3590    -2.0960 h1         1 HI4       0.068700
     41 H17A        -1.6120     0.6630    -1.2230 h1         1 HI4       0.068700
     42 H19          0.2100    -7.8760    -5.0090 h4         1 HI4       0.105000
     43 H20          0.7600    -7.6350    -2.6550 ha         1 HI4       0.104000
     44 H21          0.1000    -5.5750    -1.4250 ha         1 HI4       0.109000
     45 H22         -6.0050    -5.0140    -1.2720 hc         1 HI4       0.005700
     46 H22A        -6.7320    -3.6750    -0.3720 hc         1 HI4       0.005700
     47 H23         -4.7280    -5.6290     0.8090 hc         1 HI4      -0.003300
     48 H23A        -6.4820    -5.7810     0.9840 hc         1 HI4      -0.003300
     49 H23B        -5.6410    -4.3890     1.6790 hc         1 HI4      -0.003300
@<TRIPOS>BOND
     1     1     4 ar  
     2     1    14 ar  
     3     1    25 1   
     4     2    19 1   
     5     2    20 1   
     6     2    25 1   
     7     3    24 1   
     8     4     7 ar  
     9     4    32 1   
    10     5    26 1   
    11     5    27 1   
    12     5    33 1   
    13     6    26 2   
    14     7     8 1   
    15     7    10 ar  
    16     8    11 1   
    17     8    13 1   
    18     9    24 1   
    19    10    12 ar  
    20    10    34 1   
    21    12    14 ar  
    22    12    35 1   
    23    14    36 1   
    24    15    21 1   
    25    15    26 1   
    26    15    29 2   
    27    16    17 ar  
    28    16    18 ar  
    29    16    37 1   
    30    17    22 ar  
    31    17    30 1   
    32    18    19 ar  
    33    18    21 1   
    34    19    23 ar  
    35    20    21 2   
    36    20    24 1   
    37    22    23 ar  
    38    22    38 1   
    39    23    39 1   
    40    25    40 1   
    41    25    41 1   
    42    27    28 2   
    43    27    42 1   
    44    28    29 1   
    45    28    43 1   
    46    29    44 1   
    47    30    31 1   
    48    30    45 1   
    49    30    46 1   
    50    31    47 1   
    51    31    48 1   
    52    31    49 1   
@<TRIPOS>SUBSTRUCTURE
     1 HI4         1 TEMP              0 ****  ****    0 ROOT
