@<TRIPOS>MOLECULE
molecule
   49    52     1     0     0
SMALL
bcc


@<TRIPOS>ATOM
      1 C1           0.0000     0.0000     0.0000 ca         1 HI4      -0.140300
      2 N1          -1.2060    -1.3520    -1.6140 na         1 HI4      -0.048400
      3 O1           1.4590    -0.8750    -2.7630 o          1 HI4      -0.822800
      4 C2           1.3820     0.0000     0.0000 ca         1 HI4      -0.001000
      5 N2          -0.7390    -5.9960    -5.1520 ns         1 HI4      -0.410100
      6 O2          -1.7090    -3.9950    -5.1460 o          1 HI4      -0.652500
      7 C3           2.0730     0.0000     1.1970 ca         1 HI4      -0.189200
      8 N3           3.5540    -0.0010     1.1950 no         1 HI4       0.297200
      9 O3           1.3870    -2.9560    -3.5400 o          1 HI4      -0.822800
     10 C4           1.3840    -0.0000     2.3950 ca         1 HI4      -0.057000
     11 O4           4.1620    -0.0000     0.1400 o          1 HI4      -0.213500
     12 C5           0.0020     0.0010     2.3980 ca         1 HI4      -0.200000
     13 O5           4.1640    -0.0010     2.2500 o          1 HI4      -0.213500
     14 C6          -0.6920    -0.0000     1.2000 ca         1 HI4       0.173900
     15 C7          -0.8210    -4.6830    -3.1540 cc         1 HI4      -0.053200
     16 C8          -3.6090    -3.9880    -1.4600 ca         1 HI4      -0.082000
     17 C9          -4.6440    -3.4690    -0.7320 ca         1 HI4      -0.129300
     18 C10         -2.4800    -3.2060    -1.7150 ca         1 HI4      -0.073800
     19 C11         -2.4100    -1.8900    -1.2240 ca         1 HI4      -0.052200
     20 C12         -0.4870    -2.2790    -2.3460 cd         1 HI4      -0.024300
     21 C13         -1.2260    -3.4490    -2.4410 cc         1 HI4      -0.113200
     22 C14         -4.5810    -2.1700    -0.2460 ca         1 HI4      -0.131000
     23 C15         -3.4780    -1.3830    -0.4860 ca         1 HI4      -0.143000
     24 C16          0.8380    -2.0620    -2.9240 c          1 HI4       0.903800
     25 C17         -0.7540     0.0060    -1.3040 c3         1 HI4       0.096600
     26 C18         -1.1160    -4.8640    -4.5290 c          1 HI4       0.695700
     27 C19         -0.0790    -6.9740    -4.4830 cc         1 HI4      -0.030400
     28 C20          0.2280    -6.8430    -3.1690 cd         1 HI4      -0.224000
     29 C21         -0.1350    -5.6840    -2.4770 cd         1 HI4      -0.059000
     30 C22         -5.8610    -4.3140    -0.4580 c3         1 HI4      -0.027100
     31 C23         -5.6640    -5.0840     0.8490 c3         1 HI4      -0.087100
     32 H2           1.9240     0.0000    -0.9380 ha         1 HI4       0.243000
     33 HN2         -0.9530    -6.1190    -6.1220 hn         1 HI4       0.319500
     34 H4           1.9280    -0.0000     3.3320 ha         1 HI4       0.155000
     35 H5          -0.5380     0.0010     3.3370 ha         1 HI4       0.145000
     36 F1          -2.0430     0.0010     1.2010 f          1 HI4      -0.129900
     37 H8          -3.6650    -5.0020    -1.8360 ha         1 HI4       0.122000
     38 H14         -5.4090    -1.7730     0.3280 ha         1 HI4       0.112000
     39 H15         -3.4400    -0.3710    -0.1010 ha         1 HI4       0.129000
     40 H17         -0.1030     0.3590    -2.0960 h1         1 HI4       0.091700
     41 H17A        -1.6120     0.6630    -1.2230 h1         1 HI4       0.091700
     42 H19          0.2100    -7.8760    -5.0090 h4         1 HI4       0.129000
     43 H20          0.7600    -7.6350    -2.6550 ha         1 HI4       0.128000
     44 H21          0.1000    -5.5750    -1.4250 ha         1 HI4       0.139000
     45 H22         -6.0050    -5.0140    -1.2720 hc         1 HI4       0.036200
     46 H22A        -6.7320    -3.6750    -0.3720 hc         1 HI4       0.036200
     47 H23         -4.7280    -5.6290     0.8090 hc         1 HI4       0.028700
     48 H23A        -6.4820    -5.7810     0.9840 hc         1 HI4       0.028700
     49 H23B        -5.6410    -4.3890     1.6790 hc         1 HI4       0.028700
@<TRIPOS>BOND
     1     1     4 ar
     2     1    14 ar
     3     1    25 1
     4     2    19 1
     5     3    24 1
     6     4     7 ar
     7     4    32 1
     8     5    27 1
     9     5    33 1
    10     6    26 2
    11     7    10 ar
    12     8     7 1
    13     9    24 1
    14    10    12 ar
    15    10    34 1
    16    11     8 1
    17    12    14 ar
    18    12    35 1
    19    13     8 1
    20    14    36 1
    21    15    29 2
    22    16    17 ar
    23    16    37 1
    24    17    30 1
    25    18    16 ar
    26    19    18 ar
    27    19    23 ar
    28    20     2 1
    29    20    21 2
    30    21    15 1
    31    21    18 1
    32    22    17 ar
    33    22    38 1
    34    23    22 ar
    35    23    39 1
    36    24    20 1
    37    25     2 1
    38    25    40 1
    39    25    41 1
    40    26     5 1
    41    26    15 1
    42    27    28 2
    43    27    42 1
    44    28    43 1
    45    29    28 1
    46    29    44 1
    47    30    31 1
    48    30    45 1
    49    30    46 1
    50    31    47 1
    51    31    48 1
    52    31    49 1
@<TRIPOS>SUBSTRUCTURE
     1 HI4         1 TEMP              0 ****  ****    0 ROOT
