@<TRIPOS>MOLECULE
molecule
   44    43     1     0     0
SMALL
bcc


@<TRIPOS>ATOM
      1 P            0.0000     0.0000     0.0000 p5         1 HI5       1.428500
      2 O1P          1.7200     0.0000     0.0000 oh         1 HI5      -0.733600
      3 O2P          0.0010     0.0000     1.7210 oh         1 HI5      -0.733600
      4 O3P         -0.0000    -0.0010    -1.7190 os         1 HI5      -0.483900
      5 O4P         -0.8600     1.4890     0.0000 oh         1 HI5      -0.733600
      6 O5P         -0.8590    -1.4900    -0.0000 oh         1 HI5      -0.733600
      7 C1          -1.3680    -0.0000    -2.1320 c3         1 HI5       0.109400
      8 C2          -1.4400    -0.0000    -3.6600 c3         1 HI5       0.165100
      9 C3          -0.6370     1.1820    -4.2090 c3         1 HI5       0.164400
     10 O3           0.7190     1.1270    -3.6930 os         1 HI5      -0.394900
     11 C11          1.6080     2.0700    -4.0420 c          1 HI5       0.633100
     12 O11          1.2810     2.9630    -4.7860 o          1 HI5      -0.568000
     13 C12          3.0160     2.0130    -3.5070 c3         1 HI5      -0.122400
     14 C13          3.8180     3.1940    -4.0550 c3         1 HI5      -0.075400
     15 C14          5.2470     3.1360    -3.5110 c3         1 HI5      -0.094100
     16 O2          -0.8840    -1.2410    -4.1720 os         1 HI5      -0.418900
     17 C31         -1.6810    -2.3060    -4.3580 c          1 HI5       0.635100
     18 C32         -1.1030    -3.5940    -4.8880 c3         1 HI5      -0.123400
     19 C33         -2.2140    -4.6390    -5.0060 c3         1 HI5      -0.075400
     20 C34         -1.6290    -5.9470    -5.5440 c3         1 HI5      -0.094100
     21 O31         -2.8580    -2.2320    -4.1010 o          1 HI5      -0.559000
     22 H1P          2.0340    -0.8840     0.0920 ho         1 HI5       0.439000
     23 H2P          0.5700     0.6830     2.0350 ho         1 HI5       0.439000
     24 H4P         -0.9110     1.8220     0.8810 ho         1 HI5       0.439000
     25 H5P         -0.5330    -2.0410     0.6920 ho         1 HI5       0.439000
     26 H1C1        -1.8620    -0.8840    -1.7470 h1         1 HI5       0.064700
     27 H1C2        -1.8610     0.8850    -1.7480 h1         1 HI5       0.064700
     28 H2          -2.4730     0.0880    -3.9740 h1         1 HI5       0.082700
     29 H3C1        -1.1040     2.1090    -3.9010 h1         1 HI5       0.057200
     30 H3C2        -0.6140     1.1310    -5.2910 h1         1 HI5       0.057200
     31 H121         2.9930     2.0630    -2.4250 hc         1 HI5       0.073200
     32 H122         3.4820     1.0850    -3.8160 hc         1 HI5       0.073200
     33 H131         3.8410     3.1430    -5.1370 hc         1 HI5       0.055700
     34 H132         3.3510     4.1210    -3.7470 hc         1 HI5       0.055700
     35 H141         5.2260     3.2210    -2.4310 hc         1 HI5       0.034033
     36 H142         5.8240     3.9530    -3.9260 hc         1 HI5       0.034033
     37 H143         5.7020     2.1940    -3.7910 hc         1 HI5       0.034033
     38 H321        -0.6660    -3.4190    -5.8640 hc         1 HI5       0.072200
     39 H322        -0.3390    -3.9540    -4.2090 hc         1 HI5       0.072200
     40 H331        -2.9780    -4.2780    -5.6850 hc         1 HI5       0.057700
     41 H332        -2.6510    -4.8130    -4.0310 hc         1 HI5       0.057700
     42 H341        -0.8680    -6.3080    -4.8640 hc         1 HI5       0.035367
     43 H342        -1.1890    -5.7720    -6.5180 hc         1 HI5       0.035367
     44 H343        -2.4170    -6.6850    -5.6310 hc         1 HI5       0.035367
@<TRIPOS>BOND
     1     1     2 1
     2     1     3 1
     3     1     4 1
     4     1     5 1
     5     1     6 1
     6     2    22 1
     7     3    23 1
     8     4     7 1
     9     5    24 1
    10     6    25 1
    11     7     8 1
    12     7    26 1
    13     7    27 1
    14     8     9 1
    15     8    16 1
    16     8    28 1
    17     9    10 1
    18     9    29 1
    19     9    30 1
    20    10    11 1
    21    11    12 2
    22    11    13 1
    23    13    14 1
    24    13    31 1
    25    13    32 1
    26    14    15 1
    27    14    33 1
    28    14    34 1
    29    15    35 1
    30    15    36 1
    31    15    37 1
    32    16    17 1
    33    17    18 1
    34    17    21 2
    35    18    19 1
    36    18    38 1
    37    18    39 1
    38    19    20 1
    39    19    40 1
    40    19    41 1
    41    20    42 1
    42    20    43 1
    43    20    44 1
@<TRIPOS>SUBSTRUCTURE
     1 HI5         1 TEMP              0 ****  ****    0 ROOT
