@<TRIPOS>MOLECULE
HI6
   38    40     1     0     0
SMALL
bcc


@<TRIPOS>ATOM
      1 O3           0.0000     0.0000     0.0000 o          1 HI6      -0.081000
      2 C14          1.2150     0.0000     0.0000 c2         1 HI6       0.071000
      3 N4           1.8890     0.0000     1.1670 nz         1 HI6       0.825000
      4 C11          1.9550    -0.0020    -1.2830 c2         1 HI6      -0.115000
      5 C10          1.2760    -0.0020    -2.5060 c2         1 HI6       0.016000
      6 C9           2.0060    -0.0020    -3.6780 c2         1 HI6      -0.177500
      7 N3           3.3240    -0.0030    -3.6550 na         1 HI6       0.610000
      8 C13          4.0040    -0.0020    -2.5260 c2         1 HI6      -0.177500
      9 C12          3.3530     0.0040    -1.3060 c2         1 HI6       0.016000
     10 C8           4.0560    -0.0040    -4.9230 c3         1 HI6      -0.011000
     11 O2           4.2950     1.3440    -5.3370 os         1 HI6      -0.281000
     12 C7           5.0080     1.2760    -6.5730 c3         1 HI6       0.010000
     13 N2           5.2840     2.6330    -7.0520 n3         1 HI6       0.591000
     14 C2           5.9480     2.7950    -8.1910 c3         1 HI6      -0.249000
     15 C1           6.3900     1.6110    -8.9570 c2         1 HI6      -0.401000
     16 N1           7.0280     1.7630   -10.0720 n2         1 HI6       0.266000
     17 O1           7.4510     0.6290   -10.8050 oh         1 HI6      -0.147000
     18 C3           6.2220     4.0740    -8.6750 c2         1 HI6      -0.055000
     19 C4           5.8020     5.1730    -7.9460 c2         1 HI6       0.019000
     20 C5           5.1160     4.9570    -6.7590 c2         1 HI6      -0.026000
     21 C6           4.8740     3.6610    -6.3400 c2         1 HI6      -0.239000
     22 HN41         2.4540    -0.8240     1.2260 hn         1 HI6       0.058333
     23 HN42         1.2390     0.0140     1.9280 hn         1 HI6       0.058333
     24 H10          0.2080    -0.1850    -2.5320 ha         1 HI6       0.164500
     25 H9           1.4880    -0.0030    -4.6290 h4         1 HI6       0.196500
     26 H13          5.0860    -0.0080    -2.5540 h4         1 HI6       0.196500
     27 H12          3.9110    -0.1740    -0.3940 ha         1 HI6       0.164500
     28 H81          3.4700    -0.5150    -5.6780 h2         1 HI6       0.113000
     29 H82          5.0020    -0.5150    -4.7940 h2         1 HI6       0.113000
     30 H71          5.9430     0.7490    -6.4230 h2         1 HI6       0.115500
     31 H72          4.4100     0.7490    -7.3070 h2         1 HI6       0.115500
     32 H1           5.5200     2.2090    -9.2020 DU         1 HI6       0.260000
     33 HO1          8.0040     0.9040   -11.5180 ho         1 HI6       0.256000
     34 H3           6.7620     4.2060    -9.6050 ha         1 HI6       0.175000
     35 H4           6.0010     6.1780    -8.2950 ha         1 HI6       0.165000
     36 H5           4.7730     5.7960    -6.1660 ha         1 HI6       0.161000
     37 H6           4.3380     3.4900    -5.4140 h4         1 HI6       0.165000
     38 H43          2.4700     0.8140     1.2170 hn         1 HI6       0.058333
@<TRIPOS>BOND
     1     1     2 1   
     2     2     3 1   
     3     2     4 1   
     4     3    22 1   
     5     3    23 1   
     6     3    38 1   
     7     4     5 1   
     8     4     9 1   
     9     5     6 1   
    10     5    24 1   
    11     6     7 1   
    12     6    25 1   
    13     7     8 1   
    14     7    10 1   
    15     8     9 1   
    16     8    26 1   
    17     9    27 1   
    18    10    11 1   
    19    10    28 1   
    20    10    29 1   
    21    11    12 1   
    22    12    13 1   
    23    12    30 1   
    24    12    31 1   
    25    13    14 1   
    26    13    21 1   
    27    14    15 1   
    28    14    18 1   
    29    14    32 1   
    30    15    16 1   
    31    15    32 1   
    32    16    17 1   
    33    17    33 1   
    34    18    19 1   
    35    18    34 1   
    36    19    20 1   
    37    19    35 1   
    38    20    21 1   
    39    20    36 1   
    40    21    37 1   
@<TRIPOS>SUBSTRUCTURE
     1 HI6         1 TEMP              0 ****  ****    0 ROOT
