@<TRIPOS>MOLECULE
molecule
   38    39     1     0     0
SMALL
bcc


@<TRIPOS>ATOM
      1 O3           0.0000     0.0000     0.0000 o          1 HI6      -0.336300
      2 C14          1.2150     0.0000     0.0000 c2         1 HI6       0.498300
      3 N4           1.8890     0.0000     1.1670 nz         1 HI6      -0.680400
      4 C11          1.9550    -0.0020    -1.2830 cc         1 HI6      -0.058000
      5 C10          1.2760    -0.0020    -2.5060 cc         1 HI6      -0.086500
      6 C9           2.0060    -0.0020    -3.6780 cd         1 HI6       0.030000
      7 N3           3.3240    -0.0030    -3.6550 na         1 HI6      -0.143200
      8 C13          4.0040    -0.0020    -2.5260 cd         1 HI6       0.030000
      9 C12          3.3530     0.0040    -1.3060 cc         1 HI6      -0.086500
     10 C8           4.0560    -0.0040    -4.9230 c3         1 HI6       0.384600
     11 O2           4.2950     1.3440    -5.3370 os         1 HI6      -0.437600
     12 C7           5.0080     1.2760    -6.5730 c3         1 HI6       0.219100
     13 N2           5.2840     2.6330    -7.0520 na         1 HI6       0.046900
     14 C2           5.9480     2.7950    -8.1910 ca         1 HI6      -0.010200
     15 C1           6.3900     1.6110    -8.9570 ce         1 HI6       0.325800
     16 N1           7.0280     1.7630   -10.0720 n2         1 HI6      -0.310200
     17 O1           7.4510     0.6290   -10.8050 oh         1 HI6      -0.319500
     18 C3           6.2220     4.0740    -8.6750 ca         1 HI6      -0.088000
     19 C4           5.8020     5.1730    -7.9460 ca         1 HI6       0.010000
     20 C5           5.1160     4.9570    -6.7590 ca         1 HI6      -0.119000
     21 C6           4.8740     3.6610    -6.3400 ca         1 HI6      -0.049300
     22 HN41         2.4750     0.8100     1.2140 hn         1 HI6       0.499800
     23 HN42         2.4540    -0.8240     1.2260 hn         1 HI6       0.499800
     24 H10          0.2080    -0.1850    -2.5320 ha         1 HI6       0.215000
     25 H9           1.4880    -0.0030    -4.6290 h4         1 HI6       0.238000
     26 H13          5.0860    -0.0070    -2.5540 h4         1 HI6       0.238000
     27 H12          3.9110    -0.1740    -0.3940 ha         1 HI6       0.215000
     28 H81          3.4700    -0.5150    -5.6780 h2         1 HI6       0.114700
     29 H82          5.0020    -0.5150    -4.7940 h2         1 HI6       0.114700
     30 H71          4.4100     0.7490    -7.3070 h2         1 HI6       0.101700
     31 H72          5.9430     0.7490    -6.4230 h2         1 HI6       0.101700
     32 H1           6.1800     0.6150    -8.5850 h4         1 HI6       0.014800
     33 HO1          7.8980     0.9090   -11.5870 ho         1 HI6       0.479000
     34 H3           6.7620     4.2060    -9.6050 ha         1 HI6       0.229000
     35 H4           6.0010     6.1780    -8.2950 ha         1 HI6       0.213000
     36 H5           4.7730     5.7960    -6.1660 ha         1 HI6       0.208000
     37 H6           4.3380     3.4900    -5.4140 h4         1 HI6       0.199000
     38 H43          1.2390     0.0070     1.9280 hn         1 HI6       0.499800
@<TRIPOS>BOND
     1     1     2 1
     2     2     3 1
     3     2     4 2
     4     3    22 1
     5     3    23 1
     6     4     5 1
     7     4     9 1
     8     5     6 2
     9     5    24 1
    10     6     7 1
    11     6    25 1
    12     7     8 1
    13     7    10 1
    14     8     9 2
    15     8    26 1
    16     9    27 1
    17    10    11 1
    18    10    28 1
    19    10    29 1
    20    11    12 1
    21    12    13 1
    22    12    30 1
    23    12    31 1
    24    13    14 1
    25    13    21 2
    26    14    15 1
    27    14    18 ar
    28    15    16 2
    29    15    32 1
    30    16    17 1
    31    17    33 1
    32    18    19 ar
    33    18    34 1
    34    19    20 ar
    35    19    35 1
    36    20    21 ar
    37    20    36 1
    38    21    37 1
    39    38     3 1
@<TRIPOS>SUBSTRUCTURE
     1 HI6         1 TEMP              0 ****  ****    0 ROOT
