@<TRIPOS>MOLECULE
HIB
   26    26     1     0     0
SMALL
bcc


@<TRIPOS>ATOM
      1 C1         -0.1040    0.1180   -0.1510 ca        1 HIB     -0.083100
      2 C2          1.2960    0.1920   -0.2670 ca        1 HIB      0.144100
      3 C3          2.1140   -0.0220    0.8540 ca        1 HIB     -0.001900
      4 C4          1.5250   -0.2650    2.1200 ca        1 HIB      0.183100
      5 C5          0.1320   -0.3210    2.2430 ca        1 HIB     -0.201600
      6 C6         -0.6720   -0.1400    1.1030 ca        1 HIB      0.036700
      7 C7         -0.6010   -0.5620    3.5640 c         1 HIB      0.915200
      8 C8         -2.1400   -0.2290    1.3120 c3        1 HIB     -0.079800
      9 C9          4.1580    1.0930    1.1440 c3        1 HIB      0.117700
     10 CX          1.9850   -0.8090    4.4120 c3        1 HIB      0.095700
     11 O2          1.9650    0.4720   -1.4390 oh        1 HIB     -0.495100
     12 O3          3.4890   -0.0780    0.6810 os        1 HIB     -0.315900
     13 O4          2.4520   -0.3960    3.1280 os        1 HIB     -0.338900
     14 O7         -0.9020   -1.7500    3.8630 o         1 HIB     -0.821800
     15 O8         -0.8820    0.4470    4.2690 o         1 HIB     -0.821800
     16 I1         -1.2690    0.3890   -1.7960 i         1 HIB     -0.205900
     17 H81        -2.7200   -0.0990    0.3680 hc        1 HIB      0.061700
     18 H82        -2.4530    0.5560    2.0490 hc        1 HIB      0.061700
     19 H83        -2.3850   -1.2260    1.7620 hc        1 HIB      0.061700
     20 H91         5.2400    0.8710    0.9690 h1        1 HIB      0.030700
     21 H92         3.8380    1.9840    0.5500 h1        1 HIB      0.030700
     22 H93         3.9550    1.2540    2.2310 h1        1 HIB      0.030700
     23 HX1         1.4030   -1.7610    4.3380 h1        1 HIB      0.061033
     24 HX2         2.9350   -0.9600    4.9860 h1        1 HIB      0.061033
     25 HX3         1.3600   -0.0040    4.8730 h1        1 HIB      0.061033
     26 HO2         1.3090    0.4960   -2.1540 ho        1 HIB      0.411000
@<TRIPOS>BOND
     1    1    2 ar  
     2    1    6 ar  
     3    1   16 1   
     4    2    3 ar  
     5    2   11 1   
     6    3    4 ar  
     7    3   12 1   
     8    4    5 ar  
     9    4   13 1   
    10    5    6 ar  
    11    5    7 1   
    12    6    8 1   
    13    7   14 1   
    14    7   15 1   
    15    8   17 1   
    16    8   18 1   
    17    8   19 1   
    18    9   12 1   
    19    9   20 1   
    20    9   21 1   
    21    9   22 1   
    22   10   13 1   
    23   10   23 1   
    24   10   24 1   
    25   10   25 1   
    26   11   26 1   
@<TRIPOS>SUBSTRUCTURE
     1 HIB         1 TEMP              0 ****  ****    0 ROOT
