@<TRIPOS>MOLECULE
molecule
   26    26     1     0     0
SMALL
bcc


@<TRIPOS>ATOM
      1 C1           0.0000     0.0000     0.0000 ca         1 HIB       0.011900
      2 C2           1.3910     0.0000     0.0000 ca         1 HIB       0.087100
      3 C3           2.0910     0.0000     1.2000 ca         1 HIB       0.032100
      4 C4           1.4020    -0.0050     2.4040 ca         1 HIB       0.115100
      5 C5          -0.0000     0.0000     2.4020 ca         1 HIB      -0.089600
      6 C6          -0.6940     0.0000     1.1880 ca         1 HIB      -0.019300
      7 C7          -0.7400     0.0000     3.6750 c          1 HIB       0.889200
      8 C8          -2.2010     0.0000     1.1810 c3         1 HIB      -0.059800
      9 C9           3.8660     1.3670     1.1910 c3         1 HIB       0.123700
     10 CX           2.2840    -1.3720     3.9390 c3         1 HIB       0.126700
     11 O2           2.0670    -0.0000    -1.1780 oh         1 HIB      -0.515100
     12 O3           3.4510    -0.0000     1.1940 os         1 HIB      -0.322900
     13 O4           2.0830    -0.0050     3.5790 os         1 HIB      -0.305900
     14 O7          -1.0450    -1.0510     4.2010 o          1 HIB      -0.822300
     15 O8          -1.0790     1.1680     4.2580 o          1 HIB      -0.822300
     16 I1          -1.0430    -0.0020    -1.8170 i          1 HIB      -0.215900
     17 H81         -2.5640    -0.9090     1.6450 hc         1 HIB       0.056367
     18 H82         -2.5570     0.0510     0.1590 hc         1 HIB       0.056367
     19 H83         -2.5640     0.8580     1.7330 hc         1 HIB       0.056367
     20 H91          4.4330     1.5740     2.0900 h1         1 HIB       0.033367
     21 H92          2.9940     2.0090     1.1580 h1         1 HIB       0.033367
     22 H93          4.4850     1.5540     0.3220 h1         1 HIB       0.033367
     23 HX1          3.3460    -1.5870     3.9600 h1         1 HIB       0.035033
     24 HX2          1.8000    -2.0120     3.2120 h1         1 HIB       0.035033
     25 HX3          1.8600    -1.5530     4.9200 h1         1 HIB       0.035033
     26 HO2          1.9470    -0.8300    -1.6090 ho         1 HIB       0.413000
@<TRIPOS>BOND
     1     1     2 ar
     2     1     6 ar
     3     1    16 1
     4     2     3 ar
     5     2    11 1
     6     3     4 ar
     7     3    12 1
     8     4     5 ar
     9     4    13 1
    10     5     6 ar
    11     5     7 1
    12     6     8 1
    13     7    14 1
    14     7    15 1
    15     8    17 1
    16     8    18 1
    17     8    19 1
    18     9    12 1
    19     9    20 1
    20     9    21 1
    21     9    22 1
    22    10    13 1
    23    10    23 1
    24    10    24 1
    25    10    25 1
    26    11    26 1
@<TRIPOS>SUBSTRUCTURE
     1 HIB         1 TEMP              0 ****  ****    0 ROOT
