@<TRIPOS>MOLECULE
HID
   22    23     1     0     0
SMALL
bcc


@<TRIPOS>ATOM
      1 OAA         1.4930   -2.0170   -0.7010 o         1 HID     -0.848800
      2 OAB         1.8070   -0.6500    1.0320 o         1 HID     -0.848800
      3 CAD        -1.2640    3.2000   -4.6000 ca        1 HID     -0.161000
      4 CAE        -1.4000    1.8300   -4.7830 ca        1 HID     -0.125000
      5 CAF         0.2610   -0.7920   -2.8720 cc        1 HID     -0.091100
      6 CAG         0.3320    2.8650   -2.7590 ca        1 HID     -0.168000
      7 CAH         1.7390    0.3610   -1.1400 c3        1 HID     -0.141200
      8 NAI        -0.5700   -0.4310   -3.9500 na        1 HID     -0.201400
      9 CAJ         1.6610   -0.8650   -0.2030 c         1 HID      0.916600
     10 CAK        -0.4070    3.7010   -3.6000 ca        1 HID      0.076100
     11 CAL         0.7830    0.3390   -2.2510 cd        1 HID     -0.096400
     12 CAM        -0.6750    0.9700   -3.9530 ca        1 HID     -0.094200
     13 CAN         0.2040    1.4900   -2.9220 ca        1 HID     -0.047800
     14 HOAC        0.2440    5.2890   -2.7610 ho        1 HID      0.408000
     15 HAD        -1.8210    3.9080   -5.2280 ha        1 HID      0.129000
     16 HAE        -2.0640    1.4380   -5.5640 ha        1 HID      0.118000
     17 HAF        -1.2920   -1.0120   -4.2870 hn        1 HID      0.269700
     18 HAG         0.9930    3.2730   -1.9830 ha        1 HID      0.137000
     19 HAH         1.5880    1.2890   -0.5280 hc        1 HID      0.035200
     20 HAHA        2.7840    0.3900   -1.5500 hc        1 HID      0.035200
     21 HNAI        0.4590   -1.8390   -2.6000 h4        1 HID      0.221000
     22 OAC        -0.3390    5.0820   -3.5040 oh        1 HID     -0.522100
@<TRIPOS>BOND
     1    1    9 1   
     2    2    9 1   
     3    3    4 ar  
     4    3   10 ar  
     5    3   15 1   
     6    4   12 ar  
     7    4   16 1   
     8    5    8 1   
     9    5   11 2   
    10    5   21 1   
    11    6   10 ar  
    12    6   13 ar  
    13    6   18 1   
    14    7    9 1   
    15    7   11 1   
    16    7   19 1   
    17    7   20 1   
    18    8   12 1   
    19    8   17 1   
    20   10   22 1   
    21   11   13 1   
    22   12   13 ar  
    23   14   22 1   
@<TRIPOS>SUBSTRUCTURE
     1 HID         1 TEMP              0 ****  ****    0 ROOT
