@<TRIPOS>MOLECULE
molecule
   22    23     1     0     0
SMALL
bcc


@<TRIPOS>ATOM
      1 OAA          0.0000     0.0000     0.0000 o          1 HID      -0.846800
      2 OAB          1.8790     0.0000     1.1610 o          1 HID      -0.846800
      3 CAD         -1.1720     2.9250    -4.5740 ca         1 HID      -0.142000
      4 CAE         -1.2380     1.5740    -4.8340 ca         1 HID      -0.154000
      5 CAF          0.5340    -1.0760    -3.1190 cc         1 HID      -0.136100
      6 CAG          0.3970     2.5440    -2.7920 ca         1 HID      -0.071000
      7 CAH          1.9610    -0.0010    -1.3060 c3         1 HID      -0.126200
      8 NAI         -0.3450    -0.6880    -4.0930 na         1 HID      -0.195400
      9 CAJ          1.2080     0.0000     0.0000 c          1 HID       0.891600
     10 CAK         -0.3570     3.4120    -3.5570 ca         1 HID       0.039100
     11 CAL          0.9820    -0.0010    -2.4520 cd         1 HID      -0.057400
     12 CAM         -0.4870     0.6820    -4.0750 ca         1 HID      -0.046200
     13 CAN          0.3370     1.1720    -3.0470 ca         1 HID      -0.070800
     14 HOAC        -0.9250     4.9720    -2.6400 ho         1 HID       0.406000
     15 HAD         -1.7600     3.6150    -5.1680 ha         1 HID       0.119000
     16 HAE         -1.8760     1.2060    -5.6280 ha         1 HID       0.108000
     17 HAF          0.8260    -2.1000    -2.9160 h4         1 HID       0.160000
     18 HAG          1.1200     2.9330    -2.0860 ha         1 HID       0.148000
     19 HAH          2.5840     0.8830    -1.3640 hc         1 HID       0.037700
     20 HAHA         2.5830    -0.8860    -1.3630 hc         1 HID       0.037700
     21 HNAI        -0.8140    -1.3070    -4.7240 hn         1 HID       0.276700
     22 OAC         -0.3020     4.7490    -3.3130 oh         1 HID      -0.534100
@<TRIPOS>BOND
     1     1     9 1
     2     2     9 1
     3    22    10 1
     4     3     4 ar
     5     3    10 ar
     6     4    12 ar
     7     5     8 1
     8     5    11 2
     9     6    10 ar
    10     6    13 ar
    11     7     9 1
    12     7    11 1
    13     8    12 1
    14    11    13 1
    15    12    13 ar
    16    22    14 1
    17     3    15 1
    18     4    16 1
    19     5    17 1
    20     6    18 1
    21     7    19 1
    22     7    20 1
    23     8    21 1
@<TRIPOS>SUBSTRUCTURE
     1 HID         1 TEMP              0 ****  ****    0 ROOT
