@<TRIPOS>MOLECULE
molecule
   61    64     1     0     0
SMALL
bcc


@<TRIPOS>ATOM
      1 C8           0.0000     0.0000     0.0000 c3         1 HIE       0.218500
      2 C5          -1.7470     0.5090    -1.6740 ca         1 HIE       0.319600
      3 C6          -2.1680     0.6310    -3.0080 ca         1 HIE      -0.344600
      4 N1          -1.6350     0.4430    -5.3850 nz         1 HIE      -0.754400
      5 C2          -4.2640     1.5250    -2.2730 ca         1 HIE      -0.146000
      6 O2          -0.2160    -0.3220    -3.8560 o          1 HIE      -0.478100
      7 N2          -0.4880    -0.0000    -1.3810 nu         1 HIE      -0.754600
      8 N3          -4.7040     1.8120     0.0850 na         1 HIE       0.146300
      9 C3          -3.8470     1.4180    -0.9480 ca         1 HIE       0.154800
     10 C4          -2.5940     0.9050    -0.6480 ca         1 HIE      -0.232000
     11 N4          -6.0810     1.5500     0.1530 nc         1 HIE      -0.459800
     12 C10         -0.0010    -1.2480     2.1640 c3         1 HIE      -0.095900
     13 C11          1.5290    -1.2490     2.1650 c3         1 HIE       0.128100
     14 C12          2.0390     0.0000     1.4430 c3         1 HIE      -0.095900
     15 C13          1.5300     0.0000     0.0000 c3         1 HIE      -0.072400
     16 C14         -6.5600     2.0640     1.2580 cd         1 HIE       0.328600
     17 C15         -5.4990     2.6740     1.9380 cd         1 HIE      -0.337900
     18 C16         -4.3480     2.4960     1.1750 cc         1 HIE      -0.021600
     19 C19         -4.0720     3.6670     3.7720 c3         1 HIE      -0.161400
     20 C1          -3.4380     1.1440    -3.2900 ca         1 HIE      -0.076000
     21 F1          -8.7360     1.2180     0.8310 f          1 HIE      -0.199300
     22 F2          -8.0540     1.4520     2.9980 f          1 HIE      -0.199300
     23 F3          -8.5270     3.3020     1.7420 f          1 HIE      -0.199300
     24 O3           2.0050    -2.4160     1.4910 oh         1 HIE      -0.605800
     25 C7          -1.2760     0.2190    -4.1050 c          1 HIE       0.500700
     26 C9          -0.5100    -1.2490     0.7210 c3         1 HIE      -0.072400
     27 C17         -2.9980     3.0190     1.5870 c3         1 HIE      -0.014100
     28 C18         -3.1830     4.1380     2.6180 c3         1 HIE      -0.061000
     29 C20         -5.4660     3.3940     3.2220 c          1 HIE       0.602700
     30 C22         -1.8140     4.5420     3.1670 c3         1 HIE      -0.089100
     31 C23         -7.9950     2.0080     1.7160 c3         1 HIE       0.620600
     32 H8          -0.3590     0.8830     0.5140 h1         1 HIE       0.057700
     33 HN1         -2.3900    -0.1080    -5.7430 hn         1 HIE       0.503133
     34 HN1A        -1.8770     1.1940    -4.7700 hn         1 HIE       0.503133
     35 H2          -5.2470     1.9220    -2.4970 ha         1 HIE       0.183000
     36 HN2          0.1010    -0.3330    -2.1190 hn         1 HIE       0.481800
     37 H4          -2.2750     0.8190     0.3830 ha         1 HIE       0.179000
     38 H10         -0.3610    -2.1340     2.6740 hc         1 HIE       0.055450
     39 H10A        -0.3600    -0.3610     2.6720 hc         1 HIE       0.055450
     40 H11          1.8870    -1.2450     3.1870 h1         1 HIE       0.044700
     41 H12          1.4160     0.7940     1.8370 hc         1 HIE       0.055450
     42 H12A         2.9230     0.1410     2.0530 hc         1 HIE       0.055450
     43 H13          1.8900    -0.8860    -0.5090 hc         1 HIE       0.061450
     44 H13A         1.8900     0.8860    -0.5090 hc         1 HIE       0.061450
     45 H19         -4.1250     4.4400     4.5290 hc         1 HIE       0.081700
     46 H19A        -3.6640     2.7590     4.1980 hc         1 HIE       0.081700
     47 H21         -3.2540     5.6260     1.0690 hc         1 HIE       0.046033
     48 H21A        -4.8410     5.0960     1.6420 hc         1 HIE       0.046033
     49 H21B        -3.8580     6.1780     2.6370 hc         1 HIE       0.046033
     50 H1          -3.7680     1.2350    -4.3180 ha         1 HIE       0.124000
     51 HO3          2.5760    -2.8990     2.0650 ho         1 HIE       0.413000
     52 H9          -1.5940    -1.2470     0.7220 hc         1 HIE       0.061450
     53 H9A         -0.1470    -2.1330     0.2120 hc         1 HIE       0.061450
     54 H17         -2.4830     3.4110     0.7180 hc         1 HIE       0.061700
     55 H17A        -2.4180     2.2170     2.0260 hc         1 HIE       0.061700
     56 H22         -1.3480     3.6860     3.6420 hc         1 HIE       0.046033
     57 H22A        -1.1870     4.8900     2.3550 hc         1 HIE       0.046033
     58 H22B        -1.9360     5.3360     3.8940 hc         1 HIE       0.046033
     59 C21         -3.8320     5.3480     1.9420 c3         1 HIE      -0.089100
     60 O1          -6.4740     3.7340     3.8030 o          1 HIE      -0.483100
     61 H131        -0.8950     0.6150    -6.0370 hn         1 HIE       0.503133
@<TRIPOS>BOND
     1     1     7 1
     2     1    15 1
     3     1    26 1
     4     2     3 ar
     5     2     7 1
     6     2    10 ar
     7     3    20 ar
     8     3    25 1
     9     4    25 1
    10     5     9 ar
    11     5    20 ar
    12     6    25 2
    13     8     9 1
    14     8    11 1
    15     8    18 1
    16     9    10 ar
    17    11    16 2
    18    12    13 1
    19    12    26 1
    20    13    14 1
    21    13    24 1
    22    14    15 1
    23    16    17 1
    24    16    31 1
    25    17    18 2
    26    17    29 1
    27    18    27 1
    28    19    28 1
    29    19    29 1
    30    59    28 1
    31    21    31 1
    32    60    29 2
    33    22    31 1
    34    23    31 1
    35    27    28 1
    36    28    30 1
    37     1    32 1
    38     4    33 1
    39     4    34 1
    40     5    35 1
    41     7    36 1
    42    10    37 1
    43    12    38 1
    44    12    39 1
    45    13    40 1
    46    14    41 1
    47    14    42 1
    48    15    43 1
    49    15    44 1
    50    19    45 1
    51    19    46 1
    52    59    47 1
    53    59    48 1
    54    59    49 1
    55    20    50 1
    56    24    51 1
    57    26    52 1
    58    26    53 1
    59    27    54 1
    60    27    55 1
    61    30    56 1
    62    30    57 1
    63    30    58 1
    64    61     4 1
@<TRIPOS>SUBSTRUCTURE
     1 HIE         1 TEMP              0 ****  ****    0 ROOT
