@<TRIPOS>MOLECULE
HIG
   58    63     1     0     0
SMALL
bcc


@<TRIPOS>ATOM
      1 N1          0.0460   -0.0780    0.0550 na        1 HIG     -0.268000
      2 C2         -0.6960   -0.0990   -1.1750 c3        1 HIG      0.114300
      3 C3          1.4510   -0.0870    0.1920 ca        1 HIG      0.413800
      4 C4         -0.4780   -0.0410    1.3780 cc        1 HIG      0.420800
      5 C5         -0.4640   -1.3250   -2.0320 ca        1 HIG     -0.098300
      6 C6         -0.4050    1.0990   -2.1320 c3        1 HIG     -0.087400
      7 C7          1.7040   -0.0580    1.6310 ca        1 HIG     -0.047900
      8 N8          2.4120   -0.1180   -0.7700 nb        1 HIG     -0.673000
      9 N9          0.4850   -0.0290    2.3240 nd        1 HIG     -0.556100
     10 C10        -1.9460   -0.0210    1.6690 c3        1 HIG     -0.096700
     11 C11        -0.1910   -0.9590   -3.3670 ca        1 HIG     -0.060300
     12 C12        -0.5190   -2.6580   -1.6600 ca        1 HIG     -0.103000
     13 C13        -0.1670    0.5220   -3.5310 c3        1 HIG     -0.036100
     14 C14         3.0420   -0.0630    2.0660 ca        1 HIG      0.024700
     15 C15         3.6790   -0.1200   -0.3040 ca        1 HIG      0.437600
     16 C16        -2.5560   -1.3940    1.5260 c3        1 HIG     -0.099100
     17 C17         0.0220   -1.9290   -4.3340 ca        1 HIG     -0.108000
     18 C18        -0.3020   -3.6390   -2.6340 ca        1 HIG     -0.137000
     19 C19         4.0200   -0.0950    1.0790 ca        1 HIG     -0.275300
     20 C20         3.3730   -0.0350    3.5060 c3        1 HIG     -0.056800
     21 C21         4.8030   -0.1690   -1.2910 c3        1 HIG     -0.154400
     22 C22        -0.0320   -3.2840   -3.9610 cp        1 HIG     -0.067000
     23 C23         0.1550   -4.3300   -4.9720 cp        1 HIG     -0.021000
     24 C24         1.4210   -4.7260   -5.4410 ca        1 HIG     -0.123500
     25 C25        -0.9910   -4.9510   -5.4900 ca        1 HIG     -0.122000
     26 C26         2.6620   -4.1420   -4.9520 cc        1 HIG      0.443000
     27 C27         1.5150   -5.7250   -6.4250 ca        1 HIG     -0.084000
     28 C28        -0.8880   -5.9420   -6.4630 ca        1 HIG     -0.110000
     29 N29         2.8630   -3.4680   -3.7300 na        1 HIG     -0.162400
     30 N30         3.9030   -4.1530   -5.5490 nd        1 HIG     -0.378000
     31 C31         0.3670   -6.3270   -6.9310 ca        1 HIG     -0.132000
     32 N32         4.1520   -3.1160   -3.6550 nc        1 HIG     -0.200800
     33 N33         4.7330   -3.5300   -4.7250 nd        1 HIG     -0.055000
     34 H2         -1.7930   -0.0750   -0.8950 h1        1 HIG      0.073700
     35 H6         -1.2840    1.7880   -2.1300 hc        1 HIG      0.063700
     36 H6A         0.4900    1.6800   -1.8000 hc        1 HIG      0.063700
     37 H10        -2.0990    0.3500    2.7190 hc        1 HIG      0.068200
     38 H10A       -2.4570    0.7080    0.9840 hc        1 HIG      0.068200
     39 H12        -0.7260   -2.9480   -0.6190 ha        1 HIG      0.146000
     40 H13        -0.9650    0.8550   -4.2430 hc        1 HIG      0.064700
     41 H13A        0.8200    0.8590   -3.9390 hc        1 HIG      0.064700
     42 H16        -3.6500   -1.3460    1.7460 hc        1 HIG      0.043700
     43 H16A       -2.0820   -2.1100    2.2390 hc        1 HIG      0.043700
     44 H16B       -2.4200   -1.7880    0.4890 hc        1 HIG      0.043700
     45 H17         0.2320   -1.6490   -5.3770 ha        1 HIG      0.150000
     46 H18        -0.3510   -4.7030   -2.3540 ha        1 HIG      0.144000
     47 H19         5.0830   -0.1020    1.3610 ha        1 HIG      0.144000
     48 H20         4.4780   -0.0460    3.6690 hc        1 HIG      0.054367
     49 H20A        2.9490    0.8870    3.9790 hc        1 HIG      0.054367
     50 H20B        2.9240   -0.9220    4.0200 hc        1 HIG      0.054367
     51 H21         5.0210   -1.2350   -1.5540 hc        1 HIG      0.058700
     52 H21A        4.5540    0.3790   -2.2330 hc        1 HIG      0.058700
     53 H21B        5.7210    0.2870   -0.8460 hc        1 HIG      0.058700
     54 H25        -1.9820   -4.6430   -5.1200 ha        1 HIG      0.143000
     55 H27         2.5030   -6.0370   -6.8010 ha        1 HIG      0.163000
     56 H28        -1.7980   -6.4180   -6.8600 ha        1 HIG      0.139000
     57 H31         0.4540   -7.1080   -7.7020 ha        1 HIG      0.142000
     58 HN29        2.1910   -3.2180   -3.0350 hn        1 HIG      0.349700
@<TRIPOS>BOND
     1    1    2 1   
     2    1    3 1   
     3    1    4 1   
     4    2    5 1   
     5    2    6 1   
     6    2   34 1   
     7    3    7 ar  
     8    3    8 ar  
     9    4    9 2   
    10    4   10 1   
    11    5   11 ar  
    12    5   12 ar  
    13    6   13 1   
    14    6   35 1   
    15    6   36 1   
    16    7    9 1   
    17    7   14 ar  
    18    8   15 ar  
    19   10   16 1   
    20   10   37 1   
    21   10   38 1   
    22   11   13 1   
    23   11   17 ar  
    24   12   18 ar  
    25   12   39 1   
    26   13   40 1   
    27   13   41 1   
    28   14   19 ar  
    29   14   20 1   
    30   15   19 ar  
    31   15   21 1   
    32   16   42 1   
    33   16   43 1   
    34   16   44 1   
    35   17   22 ar  
    36   17   45 1   
    37   18   22 ar  
    38   18   46 1   
    39   19   47 1   
    40   20   48 1   
    41   20   49 1   
    42   20   50 1   
    43   21   51 1   
    44   21   52 1   
    45   21   53 1   
    46   22   23 1   
    47   23   24 ar  
    48   23   25 ar  
    49   24   26 1   
    50   24   27 ar  
    51   25   28 ar  
    52   25   54 1   
    53   26   29 1   
    54   26   30 2   
    55   27   31 ar  
    56   27   55 1   
    57   28   31 ar  
    58   28   56 1   
    59   29   32 1   
    60   29   58 1   
    61   30   33 1   
    62   31   57 1   
    63   32   33 2   
@<TRIPOS>SUBSTRUCTURE
     1 HIG         1 TEMP              0 ****  ****    0 ROOT
