@<TRIPOS>MOLECULE
molecule
   58    63     1     0     0
SMALL
bcc


@<TRIPOS>ATOM
      1 N1           0.0000     0.0000     0.0000 na         1 HIG      -0.249000
      2 C2          -0.8670    -0.0010    -1.1810 c3         1 HIG       0.110300
      3 C3           1.3780     0.0000     0.0000 ca         1 HIG       0.433800
      4 C4          -0.4090     0.0050     1.2990 cc         1 HIG       0.422800
      5 C5          -0.5580    -1.1950    -2.0600 ca         1 HIG      -0.089300
      6 C6          -0.5760     1.2350    -2.0580 c3         1 HIG      -0.090400
      7 C7           1.7610     0.0000     1.3540 ca         1 HIG      -0.031900
      8 N8           2.2940     0.0000    -0.9550 nb         1 HIG      -0.697000
      9 N9           0.6230     0.0100     2.0910 nd         1 HIG      -0.599100
     10 C10         -1.8460     0.0070     1.7510 c3         1 HIG      -0.083700
     11 C11         -0.5130    -0.8010    -3.3850 ca         1 HIG      -0.091300
     12 C12         -0.3330    -2.5210    -1.7210 ca         1 HIG      -0.101000
     13 C13         -0.7910     0.6880    -3.4850 c3         1 HIG      -0.030100
     14 C14          3.1220     0.0000     1.6720 ca         1 HIG       0.009700
     15 C15          3.5810     0.0010    -0.6750 ca         1 HIG       0.457600
     16 C16         -2.3330    -1.4350     1.9110 c3         1 HIG      -0.093100
     17 C17         -0.2450    -1.7290    -4.3740 ca         1 HIG      -0.090000
     18 C18         -0.0650    -3.4540    -2.7000 ca         1 HIG      -0.035000
     19 C19          4.0350    -0.0010     0.6350 ca         1 HIG      -0.273300
     20 C20          3.5820     0.0000     3.1070 c3         1 HIG      -0.044800
     21 C21          4.5820     0.0010    -1.8030 c3         1 HIG      -0.138400
     22 C22         -0.0190    -3.0620    -4.0380 cp         1 HIG      -0.066000
     23 C23          0.2690    -4.0580    -5.0960 cp         1 HIG       0.028000
     24 C24          1.3750    -4.9170    -4.9770 ca         1 HIG      -0.142500
     25 C25         -0.5580    -4.1530    -6.2120 ca         1 HIG      -0.123000
     26 C26          2.2590    -4.8320    -3.7950 cc         1 HIG       0.473000
     27 C27          1.6330    -5.8490    -5.9800 ca         1 HIG      -0.110000
     28 C28         -0.2870    -5.0830    -7.1950 ca         1 HIG      -0.105000
     29 N29          3.3580    -5.5890    -3.5530 na         1 HIG      -0.190400
     30 N30          2.1310    -4.0020    -2.7800 nd         1 HIG      -0.399000
     31 C31          0.8050    -5.9260    -7.0810 ca         1 HIG      -0.132000
     32 N32          3.8520    -5.1370    -2.3170 nc         1 HIG      -0.215800
     33 N33          3.0690    -4.1930    -1.9240 nd         1 HIG      -0.003000
     34 H2          -1.9100    -0.0130    -0.8890 h1         1 HIG       0.076700
     35 H6           0.4470     1.5670    -1.9260 hc         1 HIG       0.067200
     36 H6A         -1.2780     2.0320    -1.8430 hc         1 HIG       0.067200
     37 H10         -1.9250     0.5230     2.7010 hc         1 HIG       0.061700
     38 H10A        -2.4560     0.5140     1.0130 hc         1 HIG       0.061700
     39 H12         -0.3700    -2.8250    -0.6820 ha         1 HIG       0.136000
     40 H13         -1.8140     0.8570    -3.8010 hc         1 HIG       0.053200
     41 H13A        -0.0970     1.1530    -4.1740 hc         1 HIG       0.053200
     42 H16         -2.9570    -1.7010     1.0670 hc         1 HIG       0.042700
     43 H16A        -2.9060    -1.5230     2.8260 hc         1 HIG       0.042700
     44 H16B        -1.4800    -2.1010     1.9540 hc         1 HIG       0.042700
     45 H17         -0.2100    -1.4200    -5.4110 ha         1 HIG       0.128000
     46 H18          0.1090    -4.4880    -2.4310 ha         1 HIG       0.135000
     47 H19          5.0980     0.0000     0.8430 ha         1 HIG       0.139000
     48 H20          3.0000     0.7170     3.6730 hc         1 HIG       0.049033
     49 H20A         4.6300     0.2720     3.1500 hc         1 HIG       0.049033
     50 H20B         3.4480    -0.9890     3.5290 hc         1 HIG       0.049033
     51 H21          4.0590    -0.0650    -2.7490 hc         1 HIG       0.051033
     52 H21A         5.2460    -0.8480    -1.6970 hc         1 HIG       0.051033
     53 H21B         5.1590     0.9170    -1.7730 hc         1 HIG       0.051033
     54 H25         -1.4150    -3.4970    -6.3080 ha         1 HIG       0.146000
     55 H27          2.4850    -6.5130    -5.8960 ha         1 HIG       0.123000
     56 H28         -0.9320    -5.1530    -8.0630 ha         1 HIG       0.137000
     57 H31          1.0090    -6.6520    -7.8580 ha         1 HIG       0.137000
     58 HN29         3.7350    -6.3160    -4.1290 hn         1 HIG       0.336700
@<TRIPOS>BOND
     1     2     1 1
     2     4     1 1
     3     1     3 1
     4     6     2 1
     5     5     2 1
     6     2    34 1
     7     3     7 ar
     8     3     8 ar
     9    10     4 1
    10     4     9 2
    11    11     5 ar
    12     5    12 ar
    13    13     6 1
    14     6    35 1
    15     6    36 1
    16     9     7 1
    17     7    14 ar
    18     8    15 ar
    19    16    10 1
    20    10    37 1
    21    10    38 1
    22    17    11 ar
    23    13    11 1
    24    18    12 ar
    25    12    39 1
    26    13    40 1
    27    13    41 1
    28    14    19 ar
    29    14    20 1
    30    15    19 ar
    31    15    21 1
    32    16    42 1
    33    16    43 1
    34    16    44 1
    35    17    22 ar
    36    17    45 1
    37    22    18 ar
    38    18    46 1
    39    19    47 1
    40    20    48 1
    41    20    49 1
    42    20    50 1
    43    21    51 1
    44    21    52 1
    45    21    53 1
    46    23    22 1
    47    25    23 ar
    48    24    23 ar
    49    27    24 ar
    50    24    26 1
    51    28    25 ar
    52    25    54 1
    53    26    30 2
    54    26    29 1
    55    31    27 ar
    56    27    55 1
    57    31    28 ar
    58    28    56 1
    59    29    32 1
    60    30    33 1
    61    31    57 1
    62    33    32 2
    63    29    58 1
@<TRIPOS>SUBSTRUCTURE
     1 HIG         1 TEMP              0 ****  ****    0 ROOT
