@<TRIPOS>MOLECULE
molecule
   21    21     1     0     0
SMALL
bcc


@<TRIPOS>ATOM
      1 C            0.0000     0.0000     0.0000 c          1 HII       0.571900
      2 O           -0.6040     0.9040    -0.5220 o          1 HII      -0.519100
      3 CA           1.5070     0.0000     0.0000 c3         1 HII      -0.189700
      4 CN           2.0160     0.0000     1.4420 c3         1 HII      -0.082100
      5 CB           2.0190    -1.2470    -0.7210 c3         1 HII      -0.093700
      6 CG           3.5250    -1.2450    -0.7210 cc         1 HII       0.415600
      7 CD2          4.2180    -2.2530    -0.1390 cd         1 HII      -0.190400
      8 SE2          5.8960    -1.7220    -0.4440 ss         1 HII      -0.317300
      9 CE1          5.5180    -0.2540    -1.2900 cd         1 HII       0.766300
     10 ND1          4.1990    -0.2650    -1.2900 nc         1 HII      -0.806000
     11 NZ           6.3810     0.6860    -1.8310 nv         1 HII      -0.975500
     12 H           -0.5410    -0.8130     0.4680 h4         1 HII      -0.009800
     13 HA           1.8680     0.8850    -0.5100 hc         1 HII       0.096700
     14 HN1          2.4490    -0.9660     1.6720 hc         1 HII       0.040033
     15 HN2          2.7680     0.7700     1.5600 hc         1 HII       0.040033
     16 HN3          1.1900     0.1960     2.1160 hc         1 HII       0.040033
     17 HB1          1.6580    -1.2470    -1.7430 hc         1 HII       0.056200
     18 HB2          1.6580    -2.1320    -0.2110 hc         1 HII       0.056200
     19 HD2          3.8540    -3.1380     0.3700 h4         1 HII       0.194000
     20 HNZ1         6.0150     1.4990    -2.2860 hn         1 HII       0.453800
     21 HNZ2         7.3710     0.5440    -1.7820 hn         1 HII       0.453800
@<TRIPOS>BOND
     1     1     2 2
     2     1     3 1
     3     1    12 1
     4     3     4 1
     5     3     5 1
     6     3    13 1
     7     4    14 1
     8     4    15 1
     9     4    16 1
    10     5     6 1
    11     5    17 1
    12     5    18 1
    13     6     7 2
    14     6    10 1
    15     7     8 1
    16     7    19 1
    17     8     9 1
    18     9    10 2
    19     9    11 1
    20    11    20 1
    21    11    21 1
@<TRIPOS>SUBSTRUCTURE
     1 HII         1 TEMP              0 ****  ****    0 ROOT
