@<TRIPOS>MOLECULE
HIN
   43    43     1     0     0
SMALL
bcc


@<TRIPOS>ATOM
      1 C1           0.0000     0.0000     0.0000 c3         1 HIN       0.082000
      2 C2           1.5220     0.0000     0.0000 c3         1 HIN      -0.137400
      3 C3           2.1400     0.0000     1.3920 c          1 HIN       0.599100
      4 C4           3.6610    -0.0830     1.4500 c3         1 HIN      -0.074300
      5 N5           4.0560     0.7290     2.5730 ns         1 HIN      -0.206900
      6 C6           4.8340     1.8730     2.4380 c          1 HIN       0.579100
      7 C7           5.0670     2.5710     3.7720 c3         1 HIN      -0.061300
      8 N8           6.3650     3.1910     3.7280 ns         1 HIN      -0.195900
      9 C9           7.5340     2.5380     4.0820 c          1 HIN       0.597100
     10 C10          8.7650     3.3730     3.9570 c3         1 HIN      -0.087100
     11 C11          3.9750     3.5920     4.0500 c3         1 HIN       0.002900
     12 C12          4.1470    -1.5230     1.6210 c3         1 HIN       0.031900
     13 C1'          5.6080    -1.6990     1.2870 ca         1 HIN      -0.106300
     14 C2'          5.9750    -2.0120    -0.0120 ca         1 HIN      -0.090000
     15 C3'          7.3260    -2.1730    -0.3210 ca         1 HIN      -0.093500
     16 C4'          8.2920    -2.0200     0.6740 ca         1 HIN      -0.100000
     17 C5'          7.9080    -1.7040     1.9770 ca         1 HIN      -0.093500
     18 C6'          6.5570    -1.5430     2.2860 ca         1 HIN      -0.090000
     19 O3           1.4560     0.0420     2.4160 o          1 HIN      -0.555100
     20 O6           5.2600     2.3070     1.3700 o          1 HIN      -0.620100
     21 O9           7.6270     1.3790     4.4710 o          1 HIN      -0.637100
     22 Cl          -0.6480    -0.0220    -1.6580 cl         1 HIN      -0.130400
     23 H11         -0.3540    -0.8760     0.5300 h1         1 HIN       0.032200
     24 H12         -0.3540     0.8890     0.5070 h1         1 HIN       0.032200
     25 H21          1.8660     0.8800    -0.5300 hc         1 HIN       0.047200
     26 H22          1.8660    -0.8800    -0.5300 hc         1 HIN       0.047200
     27 H4           4.0790     0.3330     0.5410 h1         1 HIN       0.079700
     28 HN5          3.7560     0.4590     3.4890 hn         1 HIN       0.195500
     29 H7           5.0610     1.8290     4.5610 h1         1 HIN       0.053700
     30 HN8          6.4260     4.1430     3.4250 hn         1 HIN       0.184500
     31 H101         9.6280     2.7920     4.2580 hc         1 HIN       0.027033
     32 H102         8.8830     3.6900     2.9280 hc         1 HIN       0.027033
     33 H103         8.6760     4.2440     4.5960 hc         1 HIN       0.027033
     34 H111         3.0490     3.0770     4.2770 hc         1 HIN       0.017033
     35 H112         4.2630     4.2080     4.8940 hc         1 HIN       0.017033
     36 H113         3.8350     4.2180     3.1770 hc         1 HIN       0.017033
     37 H121         3.5630    -2.1660     0.9740 hc         1 HIN       0.025200
     38 H122         3.9870    -1.8240     2.6490 hc         1 HIN       0.025200
     39 H2'          5.2210    -2.1300    -0.7810 ha         1 HIN       0.108500
     40 H3'          7.6250    -2.4180    -1.3330 ha         1 HIN       0.106000
     41 H4'          9.3410    -2.1450     0.4330 ha         1 HIN       0.102000
     42 H5'          8.6580    -1.5850     2.7500 ha         1 HIN       0.106000
     43 H6'          6.2520    -1.2990     3.2960 ha         1 HIN       0.108500
@<TRIPOS>BOND
     1     1     2 1   
     2     1    22 1   
     3     1    23 1   
     4     1    24 1   
     5     2     3 1   
     6     2    25 1   
     7     2    26 1   
     8     3     4 1   
     9     3    19 2   
    10     4     5 1   
    11     4    12 1   
    12     4    27 1   
    13     5     6 1   
    14     5    28 1   
    15     6     7 1   
    16     6    20 2   
    17     7     8 1   
    18     7    11 1   
    19     7    29 1   
    20     8     9 1   
    21     8    30 1   
    22     9    10 1   
    23     9    21 2   
    24    10    31 1   
    25    10    32 1   
    26    10    33 1   
    27    11    34 1   
    28    11    35 1   
    29    11    36 1   
    30    12    13 1   
    31    12    37 1   
    32    12    38 1   
    33    13    14 ar  
    34    13    18 ar  
    35    14    15 ar  
    36    14    39 1   
    37    15    16 ar  
    38    15    40 1   
    39    16    17 ar  
    40    16    41 1   
    41    17    18 ar  
    42    17    42 1   
    43    18    43 1   
@<TRIPOS>SUBSTRUCTURE
     1 HIN         1 TEMP              0 ****  ****    0 ROOT
