@<TRIPOS>MOLECULE
HIO
   18    17     1     0     0
SMALL
bcc


@<TRIPOS>ATOM
      1 C1           0.0000     0.0000     0.0000 c          1 HIO       0.917600
      2 O11          1.2120     0.0000     0.0000 o          1 HIO      -0.860300
      3 O12         -0.6720     0.0000     1.1650 o          1 HIO      -0.860300
      4 C2          -0.7480    -0.0020    -1.2930 c          1 HIO       0.507100
      5 O2          -1.9570    -0.0960    -1.2940 o          1 HIO      -0.659100
      6 N3          -0.0790     0.1000    -2.4580 n          1 HIO      -0.049300
      7 O3           1.3110     0.3690    -2.4550 oh         1 HIO      -0.410100
      8 C4          -0.7890    -0.0660    -3.7270 c3         1 HIO       0.022700
      9 C41         -1.4140    -1.4610    -3.7830 c3         1 HIO      -0.022600
     10 C42         -1.8880     0.9910    -3.8400 c3         1 HIO      -0.022600
     11 HO3          1.7660    -0.3200    -2.9110 ho         1 HIO       0.363000
     12 H4          -0.0930     0.0490    -4.5490 h1         1 HIO       0.007700
     13 H411        -2.3510    -1.4590    -3.2370 hc         1 HIO       0.010700
     14 H412        -1.5980    -1.7340    -4.8150 hc         1 HIO       0.010700
     15 H413        -0.7370    -2.1780    -3.3350 hc         1 HIO       0.010700
     16 H421        -2.1070     1.1750    -4.8850 hc         1 HIO       0.010700
     17 H422        -1.5540     1.9100    -3.3740 hc         1 HIO       0.010700
     18 H423        -2.7820     0.6370    -3.3410 hc         1 HIO       0.010700
@<TRIPOS>BOND
     1     1     2 1   
     2     1     3 1   
     3     1     4 1   
     4     4     5 2   
     5     4     6 1   
     6     6     7 1   
     7     6     8 1   
     8     7    11 1   
     9     8     9 1   
    10     8    10 1   
    11     8    12 1   
    12     9    13 1   
    13     9    14 1   
    14     9    15 1   
    15    10    16 1   
    16    10    17 1   
    17    10    18 1   
@<TRIPOS>SUBSTRUCTURE
     1 HIO         1 TEMP              0 ****  ****    0 ROOT
