@<TRIPOS>MOLECULE
molecule
   25    24     1     0     0
SMALL
bcc


@<TRIPOS>ATOM
      1 CA1          1.5400     0.0000     0.0000 c3         1 HIT       0.054100
      2 C3           0.0000     0.0000     0.0000 c3         1 HIT      -0.060700
      3 C5          -0.5890    -1.2190     0.7190 c3         1 HIT      -0.084100
      4 C9          -0.5340     0.0490    -1.4350 c3         1 HIT      -0.084100
      5 C13          2.1140     0.0000     1.4160 c          1 HIT       0.548100
      6 O14          2.8600    -0.8990     1.8060 o          1 HIT      -0.520100
      7 CA2          1.7760     1.2030     2.2990 c3         1 HIT      -0.257700
      8 C17          3.0530     1.9390     2.6950 c3         1 HIT      -0.059100
      9 C21          1.0050     0.7990     3.5400 c          1 HIT       0.901600
     10 O22          0.1420     1.7640     3.9480 o          1 HIT      -0.833300
     11 O1           1.1320    -0.2700     4.1220 o          1 HIT      -0.833300
     12 O25          2.0270    -1.1420    -0.6890 oh         1 HIT      -0.594800
     13 HA1          1.8860     0.8890    -0.5140 h1         1 HIT       0.026700
     14 H3          -0.3370     0.8910     0.5160 hc         1 HIT       0.072700
     15 H51         -0.8920    -1.9580    -0.0130 hc         1 HIT       0.034367
     16 H52          0.1580    -1.6470     1.3760 hc         1 HIT       0.034367
     17 H53         -1.4500    -0.9130     1.3010 hc         1 HIT       0.034367
     18 H91         -1.6140     0.1380    -1.4150 hc         1 HIT       0.034367
     19 H92         -0.2560    -0.8590    -1.9550 hc         1 HIT       0.034367
     20 H93         -0.1110     0.9040    -1.9490 hc         1 HIT       0.034367
     21 HA2          1.1590     1.8820     1.7230 hc         1 HIT       0.050700
     22 H171         3.6490     1.3060     3.3420 hc         1 HIT       0.026033
     23 H172         3.6210     2.1810     1.8050 hc         1 HIT       0.026033
     24 H173         2.7960     2.8510     3.2190 hc         1 HIT       0.026033
     25 HO2          2.8250    -0.9210    -1.1400 ho         1 HIT       0.389000
@<TRIPOS>BOND
     1     1     2 1
     2     1     5 1
     3     1    12 1
     4     1    13 1
     5     2     3 1
     6     2     4 1
     7     2    14 1
     8     3    15 1
     9     3    16 1
    10     3    17 1
    11     4    18 1
    12     4    19 1
    13     4    20 1
    14     5     6 2
    15     5     7 1
    16     7     8 1
    17     7     9 1
    18     7    21 1
    19     8    22 1
    20     8    23 1
    21     8    24 1
    22     9    10 1
    23     9    11 1
    24    12    25 1
@<TRIPOS>SUBSTRUCTURE
     1 HIT         1 TEMP              0 ****  ****    0 ROOT
