@<TRIPOS>MOLECULE
HIT
   25    24     1     0     0
SMALL
bcc


@<TRIPOS>ATOM
      1 CA1         1.3530    0.3550   -0.1560 c3        1 HIT      0.046100
      2 C3         -0.0900   -0.0600    0.1570 c3        1 HIT     -0.102700
      3 C5         -0.1440   -1.4060    0.8460 c3        1 HIT     -0.087600
      4 C9         -0.9130   -0.0630   -1.1120 c3        1 HIT     -0.087600
      5 C13         2.2380    0.2970    1.0880 c         1 HIT      0.580100
      6 O14         3.0340   -0.6470    1.2000 o         1 HIT     -0.588100
      7 CA2         2.1120    1.4200    2.0630 c3        1 HIT     -0.296700
      8 C17         3.2620    1.4520    3.0390 c3        1 HIT     -0.060100
      9 C21         0.7650    1.3150    2.8570 c         1 HIT      0.926600
     10 O22        -0.0900    2.2140    2.6300 o         1 HIT     -0.822300
     11 O1          0.6170    0.3580    3.6600 o         1 HIT     -0.822300
     12 O25         1.9150   -0.4360   -1.1950 oh        1 HIT     -0.616800
     13 HA1         1.3560    1.4010   -0.5740 h1        1 HIT      0.076700
     14 H3         -0.5060    0.7170    0.8680 hc        1 HIT      0.115700
     15 H51         0.3350   -1.3260    1.8570 hc        1 HIT      0.031367
     16 H52         0.3880   -2.1830    0.2470 hc        1 HIT      0.031367
     17 H53        -1.2050   -1.7270    0.9820 hc        1 HIT      0.031367
     18 H91        -0.9210    0.9550   -1.5710 hc        1 HIT      0.031367
     19 H92        -0.4840   -0.7800   -1.8530 hc        1 HIT      0.031367
     20 H93        -1.9650   -0.3620   -0.8880 hc        1 HIT      0.031367
     21 HA2         2.0730    2.3830    1.4840 hc        1 HIT      0.059700
     22 H171        3.1830    2.3570    3.6870 hc        1 HIT      0.027367
     23 H172        3.2260    0.5410    3.6870 hc        1 HIT      0.027367
     24 H173        4.2410    1.4730    2.5030 hc        1 HIT      0.027367
     25 HO2         2.1760   -1.2780   -0.7980 ho        1 HIT      0.410000
@<TRIPOS>BOND
     1    1    2 1   
     2    1    5 1   
     3    1   12 1   
     4    1   13 1   
     5    2    3 1   
     6    2    4 1   
     7    2   14 1   
     8    3   15 1   
     9    3   16 1   
    10    3   17 1   
    11    4   18 1   
    12    4   19 1   
    13    4   20 1   
    14    5    6 2   
    15    5    7 1   
    16    7    8 1   
    17    7    9 1   
    18    7   21 1   
    19    8   22 1   
    20    8   23 1   
    21    8   24 1   
    22    9   10 1   
    23    9   11 1   
    24   12   25 1   
@<TRIPOS>SUBSTRUCTURE
     1 HIT         1 TEMP              0 ****  ****    0 ROOT
