@<TRIPOS>MOLECULE
HIU
   14    13     1     0     0
SMALL
bcc


@<TRIPOS>ATOM
      1 O1          0.0540   -0.0440    0.0780 o         1 HIU     -0.848300
      2 C1          1.3150   -0.0470   -0.0030 c         1 HIU      0.914600
      3 O2          1.9520   -0.1350   -1.0920 o         1 HIU     -0.848300
      4 C2          2.1140    0.0420    1.3230 c3        1 HIU     -0.189700
      5 C3          1.7060    1.2730    2.0960 c3        1 HIU     -0.062100
      6 C4          3.6050    0.0290    1.0400 c3        1 HIU      0.141400
      7 O3          4.3000   -0.2760    2.2510 oh        1 HIU     -0.629800
      8 H2          1.8540   -0.8690    1.9270 hc        1 HIU      0.044700
      9 H31         2.2070    1.2950    3.0940 hc        1 HIU      0.018033
     10 H32         0.5980    1.2710    2.2360 hc        1 HIU      0.018033
     11 H33         1.9890    2.1980    1.5390 hc        1 HIU      0.018033
     12 H41         3.9460    1.0290    0.6630 h1        1 HIU      0.026700
     13 H42         3.8350   -0.7480    0.2620 h1        1 HIU      0.026700
     14 HO3         5.2230   -0.3900    2.0030 ho        1 HIU      0.369000
@<TRIPOS>BOND
     1    1    2 1   
     2    2    3 1   
     3    2    4 1   
     4    4    5 1   
     5    4    6 1   
     6    4    8 1   
     7    5    9 1   
     8    5   10 1   
     9    5   11 1   
    10    6    7 1   
    11    6   12 1   
    12    6   13 1   
    13    7   14 1   
@<TRIPOS>SUBSTRUCTURE
     1 HIU         1 TEMP              0 ****  ****    0 ROOT
