@<TRIPOS>MOLECULE
molecule
   14    13     1     0     0
SMALL
bcc


@<TRIPOS>ATOM
      1 O1           0.0000     0.0000     0.0000 o          1 HIU      -0.853800
      2 C1           1.3430     0.0000     0.0000 c          1 HIU       0.896600
      3 O2           1.9470     0.0000    -1.0460 o          1 HIU      -0.853800
      4 C2           2.0950     0.0000     1.3060 c3         1 HIU      -0.169700
      5 C3           1.7250     1.2490     2.1070 c3         1 HIU      -0.063100
      6 C4           3.5990     0.0010     1.0270 c3         1 HIU       0.148400
      7 O3           4.3120    -0.1170     2.2590 oh         1 HIU      -0.637800
      8 H2           1.8330    -0.8850     1.8740 hc         1 HIU       0.046700
      9 H31          0.6660     1.2330     2.3330 hc         1 HIU       0.021367
     10 H32          1.9570     2.1330     1.5250 hc         1 HIU       0.021367
     11 H33          2.2910     1.2660     3.0310 hc         1 HIU       0.021367
     12 H41          3.8750     0.9260     0.5360 h1         1 HIU       0.025200
     13 H42          3.8480    -0.8360     0.3850 h1         1 HIU       0.025200
     14 HO3          5.2090    -0.3500     2.0830 ho         1 HIU       0.373000
@<TRIPOS>BOND
     1     1     2 1
     2     2     3 1
     3     2     4 1
     4     4     5 1
     5     4     6 1
     6     4     8 1
     7     5     9 1
     8     5    10 1
     9     5    11 1
    10     6     7 1
    11     6    12 1
    12     6    13 1
    13     7    14 1
@<TRIPOS>SUBSTRUCTURE
     1 HIU         1 TEMP              0 ****  ****    0 ROOT
