@<TRIPOS>MOLECULE
molecule
   38    38     1     0     0
SMALL
bcc


@<TRIPOS>ATOM
      1 O31          0.0000     0.0000     0.0000 o          1 HIW      -0.847300
      2 C31          1.2130     0.0000     0.0000 c          1 HIW       0.829300
      3 O32          1.8870     0.0000     1.1660 o          1 HIW      -0.847300
      4 C3           1.9560    -0.0080    -1.2830 ce         1 HIW       0.375300
      5 N4           3.2250    -0.0090    -1.3810 n2         1 HIW      -0.510900
      6 C2           1.3020    -0.0210    -2.6480 c3         1 HIW      -0.020900
      7 C1           2.4450    -0.4440    -3.6010 c3         1 HIW      -0.090400
      8 C5           3.6830    -0.0140    -2.7750 c3         1 HIW       0.112500
      9 C6           4.8170    -1.0260    -2.9520 c3         1 HIW      -0.143700
     10 C7           4.3580    -2.3810    -2.4810 c          1 HIW       0.894600
     11 O71          3.2380    -2.5240    -2.0490 o          1 HIW      -0.847800
     12 O72          5.1930    -3.4310    -2.5420 o          1 HIW      -0.847800
     13 C61          6.0280    -0.5830    -2.1280 c3         1 HIW       0.161100
     14 O62          6.4640     0.7020    -2.5740 oh         1 HIW      -0.637800
     15 C62          7.1620    -1.5950    -2.3040 c3         1 HIW      -0.100100
     16 S21          0.6910     1.6320    -3.0780 ss         1 HIW      -0.430200
     17 C22         -0.6350     1.9060    -1.8710 c3         1 HIW       0.003700
     18 C23         -1.2620     3.2810    -2.1040 c3         1 HIW       0.246800
     19 N24         -2.3340     3.5010    -1.1300 nu         1 HIW      -0.865200
     20 C25         -3.0430     4.6720    -1.1450 c2         1 HIW       0.654100
     21 N26         -2.7680     5.5840    -2.0210 n2         1 HIW      -0.940100
     22 H5           0.4990    -0.7480    -2.6750 h1         1 HIW       0.077700
     23 H6           2.4390    -1.5150    -3.7640 hc         1 HIW       0.056200
     24 H7           2.3940     0.1020    -4.5350 hc         1 HIW       0.056200
     25 H8           4.0050     0.9770    -3.0680 h1         1 HIW       0.049700
     26 H9           5.0920    -1.0800    -3.9980 hc         1 HIW       0.034700
     27 H11          5.7530    -0.5280    -1.0820 h1         1 HIW       0.062700
     28 H12          6.9750     1.1130    -1.8960 ho         1 HIW       0.373000
     29 H13          7.0840    -2.0590    -3.2800 hc         1 HIW       0.029033
     30 H14          8.1150    -1.0870    -2.2210 hc         1 HIW       0.029033
     31 H15          7.0900    -2.3560    -1.5360 hc         1 HIW       0.029033
     32 H16         -0.2260     1.8610    -0.8690 h1         1 HIW       0.092200
     33 H17         -1.3920     1.1390    -1.9870 h1         1 HIW       0.092200
     34 H18         -0.5060     4.0470    -1.9880 h1         1 HIW       0.047200
     35 H19         -1.6710     3.3260    -3.1070 h1         1 HIW       0.047200
     36 H20         -2.5370     2.8010    -0.4440 hn         1 HIW       0.450800
     37 H21         -3.8350     4.8350    -0.4230 h5         1 HIW      -0.050200
     38 H22         -3.2870     6.4400    -2.0320 hn         1 HIW       0.375400
@<TRIPOS>BOND
     1    15    13 1
     2    14    13 1
     3    13     9 1
     4    11    10 1
     5     7     6 1
     6     7     8 1
     7    10     9 1
     8    10    12 1
     9     9     8 1
    10     6     4 1
    11     6    16 1
    12     8     5 1
    13     4     5 2
    14     4     2 1
    15     1     2 1
    16     2     3 1
    17    16    17 1
    18    17    18 1
    19    21    20 2
    20    20    19 1
    21    19    18 1
    22     6    22 1
    23     7    23 1
    24     7    24 1
    25     8    25 1
    26     9    26 1
    27    13    27 1
    28    14    28 1
    29    15    29 1
    30    15    30 1
    31    15    31 1
    32    17    32 1
    33    17    33 1
    34    18    34 1
    35    18    35 1
    36    19    36 1
    37    20    37 1
    38    21    38 1
@<TRIPOS>SUBSTRUCTURE
     1 HIW         1 TEMP              0 ****  ****    0 ROOT
