@<TRIPOS>MOLECULE
HIW
   38    38     1     0     0
SMALL
bcc


@<TRIPOS>ATOM
      1 O31          0.0000     0.0000     0.0000 o          1 HIW      -0.899300
      2 C31          1.2130     0.0000     0.0000 c          1 HIW       0.924300
      3 O32          1.8870     0.0000     1.1660 o          1 HIW      -0.899300
      4 C3           1.9560    -0.0080    -1.2830 ce         1 HIW       0.323300
      5 N4           3.2250    -0.0090    -1.3810 n2         1 HIW      -0.430900
      6 C2           1.3020    -0.0210    -2.6480 c3         1 HIW       0.040100
      7 C1           2.4450    -0.4440    -3.6010 c3         1 HIW      -0.052400
      8 C5           3.6830    -0.0140    -2.7750 c3         1 HIW       0.118500
      9 C6           4.8170    -1.0260    -2.9520 c3         1 HIW      -0.145700
     10 C7           4.3580    -2.3810    -2.4810 c          1 HIW       0.985600
     11 O71          3.2380    -2.5240    -2.0490 o          1 HIW      -0.890300
     12 O72          5.1930    -3.4310    -2.5420 o          1 HIW      -0.890300
     13 C61          6.0280    -0.5830    -2.1280 c3         1 HIW       0.209100
     14 O62          6.4640     0.7020    -2.5740 oh         1 HIW      -0.618800
     15 C62          7.1620    -1.5950    -2.3040 c3         1 HIW      -0.082100
     16 S21          0.6910     1.6320    -3.0780 ss         1 HIW      -0.479200
     17 C22         -0.6350     1.9060    -1.8710 c3         1 HIW       0.043700
     18 C23         -1.2620     3.2810    -2.1040 c3         1 HIW       0.172800
     19 N24         -2.3340     3.5010    -1.1300 nu         1 HIW      -0.522200
     20 C25         -3.0430     4.6720    -1.1450 c2         1 HIW       0.512100
     21 N26         -2.7680     5.5840    -2.0210 n2         1 HIW      -0.853100
     22 H5           0.4990    -0.7480    -2.6750 h1         1 HIW       0.058700
     23 H6           2.3940     0.1020    -4.5350 hc         1 HIW       0.038200
     24 H7           2.4390    -1.5150    -3.7640 hc         1 HIW       0.038200
     25 H8           4.0050     0.9770    -3.0680 h1         1 HIW       0.024700
     26 H9           5.0920    -1.0800    -3.9980 hc         1 HIW       0.016700
     27 H11          5.7530    -0.5280    -1.0820 h1         1 HIW       0.031700
     28 H12          6.9600     1.1210    -1.8900 ho         1 HIW       0.365000
     29 H13          6.8440    -2.3800    -2.9800 hc         1 HIW       0.017367
     30 H14          8.0310    -1.0960    -2.7150 hc         1 HIW       0.017367
     31 H15          7.4140    -2.0260    -1.3430 hc         1 HIW       0.017367
     32 H16         -0.2260     1.8610    -0.8690 h1         1 HIW       0.082200
     33 H17         -1.3920     1.1390    -1.9870 h1         1 HIW       0.082200
     34 H18         -0.5060     4.0470    -1.9880 h1         1 HIW       0.015200
     35 H19         -1.6710     3.3260    -3.1060 h1         1 HIW       0.015200
     36 H20         -2.5500     2.7930    -0.4560 hn         1 HIW       0.309800
     37 H21         -3.8350     4.8360    -0.4230 h5         1 HIW      -0.019200
     38 H22         -2.0370     5.4330    -2.6870 hn         1 HIW       0.328400
@<TRIPOS>BOND
     1     1     2 1   
     2     2     3 1   
     3     2     4 1   
     4     4     5 2   
     5     4     6 1   
     6     5     8 1   
     7     6     7 1   
     8     6    16 1   
     9     6    22 1   
    10     7     8 1   
    11     7    23 1   
    12     7    24 1   
    13     8     9 1   
    14     8    25 1   
    15     9    10 1   
    16     9    13 1   
    17     9    26 1   
    18    10    11 1   
    19    10    12 1   
    20    13    14 1   
    21    13    15 1   
    22    13    27 1   
    23    14    28 1   
    24    15    29 1   
    25    15    30 1   
    26    15    31 1   
    27    16    17 1   
    28    17    18 1   
    29    17    32 1   
    30    17    33 1   
    31    18    19 1   
    32    18    34 1   
    33    18    35 1   
    34    19    20 1   
    35    19    36 1   
    36    20    21 2   
    37    20    37 1   
    38    21    38 1   
@<TRIPOS>SUBSTRUCTURE
     1 HIW         1 TEMP              0 ****  ****    0 ROOT
