@<TRIPOS>MOLECULE
molecule
   47    49     1     0     0
SMALL
bcc


@<TRIPOS>ATOM
      1 NAA          0.0000     0.0000     0.0000 nz         1 HIZ      -0.855600
      2 OAB          3.2660    -0.5710     5.8800 o          1 HIZ      -0.623100
      3 ClAD         4.6800    -4.2560    10.9690 cl         1 HIZ      -0.060400
      4 CAE          0.7490    -1.8550    -6.9150 ca         1 HIZ      -0.102000
      5 CAF          1.9790    -1.3640    -6.5180 ca         1 HIZ      -0.124500
      6 CAG         -0.0670    -2.4950    -6.0010 ca         1 HIZ      -0.124500
      7 CAH          2.3930    -1.5150    -5.2080 ca         1 HIZ      -0.106000
      8 CAI          0.3490    -2.6500    -4.6930 ca         1 HIZ      -0.106000
      9 CAJ          3.4120    -0.6830     9.7000 ca         1 HIZ      -0.140000
     10 CAK          2.9540    -0.9600     8.4260 ca         1 HIZ      -0.102000
     11 CAL          2.6540     1.0210     1.9440 cc         1 HIZ      -0.232400
     12 CAM          3.5580    -3.2680     8.7120 ca         1 HIZ      -0.122000
     13 CAN          2.0280    -2.3190    -2.8660 c3         1 HIZ       0.195700
     14 CAO          1.9790    -1.2500    -0.7210 c3         1 HIZ       0.113400
     15 NAP          1.7680    -1.0060     2.2500 nd         1 HIZ      -0.775000
     16 NAQ          2.5620    -2.5360     6.6380 ns         1 HIZ      -0.462100
     17 OAS          1.5990    -1.1940    -2.0980 os         1 HIZ      -0.464600
     18 SAT          3.0380     0.6210     3.6160 ss         1 HIZ       0.076700
     19 CAU          2.6750    -1.6120     5.6640 c          1 HIZ       0.783100
     20 CAV          1.5770    -2.1550    -4.2940 ca         1 HIZ      -0.116300
     21 CAW          3.9430    -1.6960    10.4810 ca         1 HIZ       0.145900
     22 CAX          3.0260    -2.2540     7.9290 ca         1 HIZ       0.040600
     23 CAY          4.0150    -2.9880     9.9880 ca         1 HIZ       0.001400
     24 CAZ          1.9720     0.0000     1.4200 cd         1 HIZ       0.295600
     25 CBA          2.2500    -0.8860     3.4470 cc         1 HIZ       0.572300
     26 CBB          1.4700     0.0000     0.0000 c3         1 HIZ       0.096200
     27 HNAA        -0.4170    -0.6980    -0.5830 hn         1 HIZ       0.480467
     28 HNAB        -0.4170     0.1560     0.8960 hn         1 HIZ       0.480467
     29 HAE          0.4240    -1.7360    -7.9410 ha         1 HIZ       0.144000
     30 HAF          2.6190    -0.8630    -7.2340 ha         1 HIZ       0.142500
     31 HAG         -1.0300    -2.8810    -6.3130 ha         1 HIZ       0.142500
     32 HAH          3.3560    -1.1280    -4.8960 ha         1 HIZ       0.129500
     33 HAI         -0.2910    -3.1520    -3.9770 ha         1 HIZ       0.129500
     34 HAJ          3.3550     0.3270    10.0880 ha         1 HIZ       0.164000
     35 HAK          2.5390    -0.1670     7.8160 ha         1 HIZ       0.163000
     36 HAL          2.9230     1.9370     1.4310 h4         1 HIZ       0.191000
     37 HAM          3.6150    -4.2790     8.3260 ha         1 HIZ       0.153000
     38 HAN          3.1090    -2.3870    -2.8350 h1         1 HIZ       0.044200
     39 HANA         1.5980    -3.2230    -2.4530 h1         1 HIZ       0.044200
     40 HAO          3.0590    -1.2960    -0.6460 h1         1 HIZ       0.075700
     41 HAOA         1.5470    -2.1320    -0.2640 h1         1 HIZ       0.075700
     42 HNAQ         2.1220    -3.4150     6.4460 hn         1 HIZ       0.332500
     43 HNAR         1.6520    -2.6990     4.2720 hn         1 HIZ       0.347500
     44 HBB          1.8310     0.8840    -0.5110 hx         1 HIZ       0.121700
     45 NAR          2.1330    -1.8400     4.4520 ns         1 HIZ      -0.530400
     46 HAA3         0.2780     0.8430    -0.4620 hn         1 HIZ       0.480467
     47 FAC          4.3900    -1.4230    11.7260 f          1 HIZ      -0.114900
@<TRIPOS>BOND
     1     1    26 1
     2     1    27 1
     3     1    28 1
     4    19     2 2
     5    47    21 1
     6    23     3 1
     7     5     4 ar
     8     4     6 ar
     9     4    29 1
    10     7     5 ar
    11     5    30 1
    12     8     6 ar
    13     6    31 1
    14     7    20 ar
    15     7    32 1
    16    20     8 ar
    17     8    33 1
    18     9    10 ar
    19     9    21 ar
    20     9    34 1
    21    10    22 ar
    22    10    35 1
    23    24    11 2
    24    11    18 1
    25    11    36 1
    26    22    12 ar
    27    23    12 ar
    28    12    37 1
    29    17    13 1
    30    13    20 1
    31    13    38 1
    32    13    39 1
    33    26    14 1
    34    14    17 1
    35    14    40 1
    36    14    41 1
    37    15    25 2
    38    15    24 1
    39    16    22 1
    40    16    19 1
    41    16    42 1
    42    45    19 1
    43    45    25 1
    44    45    43 1
    45    25    18 1
    46    21    23 ar
    47    26    24 1
    48    26    44 1
    49    46     1 1
@<TRIPOS>SUBSTRUCTURE
     1 HIZ         1 TEMP              0 ****  ****    0 ROOT
