@<TRIPOS>MOLECULE
HIZ
   47    49     1     0     0
SMALL
bcc


@<TRIPOS>ATOM
      1 NAA          0.0000     0.0000     0.0000 nz         1 HIZ      -0.020600
      2 OAB          3.2660    -0.5710     5.8800 o          1 HIZ      -0.647100
      3 ClAD         4.6800    -4.2560    10.9690 cl         1 HIZ       0.033600
      4 CAE          0.7490    -1.8550    -6.9150 ca         1 HIZ      -0.072000
      5 CAF          1.9790    -1.3640    -6.5180 ca         1 HIZ      -0.096500
      6 CAG         -0.0670    -2.4950    -6.0010 ca         1 HIZ      -0.096500
      7 CAH          2.3930    -1.5150    -5.2080 ca         1 HIZ      -0.077000
      8 CAI          0.3490    -2.6500    -4.6930 ca         1 HIZ      -0.077000
      9 CAJ          3.4120    -0.6830     9.7000 ca         1 HIZ      -0.100000
     10 CAK          2.9540    -0.9600     8.4260 ca         1 HIZ      -0.073000
     11 CAL          2.6540     1.0210     1.9440 cc         1 HIZ      -0.119400
     12 CAM          3.5580    -3.2680     8.7120 ca         1 HIZ      -0.094000
     13 CAN          2.0280    -2.3190    -2.8660 c3         1 HIZ       0.294700
     14 CAO          1.9790    -1.2500    -0.7210 c3         1 HIZ       0.189400
     15 NAP          1.7680    -1.0060     2.2500 nd         1 HIZ      -0.677000
     16 NAQ          2.5620    -2.5360     6.6380 ns         1 HIZ      -0.004100
     17 OAS          1.5990    -1.1940    -2.0980 os         1 HIZ      -0.451600
     18 SAT          3.0380     0.6210     3.6160 ss         1 HIZ      -0.101300
     19 CAU          2.6750    -1.6120     5.6640 c          1 HIZ       0.530100
     20 CAV          1.5770    -2.1550    -4.2940 ca         1 HIZ      -0.141300
     21 CAW          3.9430    -1.6960    10.4810 ca         1 HIZ       0.121900
     22 CAX          3.0260    -2.2540     7.9290 ca         1 HIZ      -0.113400
     23 CAY          4.0150    -2.9880     9.9880 ca         1 HIZ      -0.064600
     24 CAZ          1.9720     0.0000     1.4200 cd         1 HIZ       0.242600
     25 CBA          2.2500    -0.8860     3.4470 cc         1 HIZ       0.457300
     26 CBB          1.4700     0.0000     0.0000 c3         1 HIZ      -0.054800
     27 HNAA        -0.4170    -0.6980    -0.5830 hn         1 HIZ       0.257467
     28 HNAB        -0.4170     0.1560     0.8960 hn         1 HIZ       0.257467
     29 HAE          0.4240    -1.7360    -7.9410 ha         1 HIZ       0.113000
     30 HAF          2.6190    -0.8630    -7.2340 ha         1 HIZ       0.112500
     31 HAG         -1.0300    -2.8810    -6.3130 ha         1 HIZ       0.112500
     32 HAH          3.3560    -1.1280    -4.8960 ha         1 HIZ       0.103000
     33 HAI         -0.2910    -3.1520    -3.9770 ha         1 HIZ       0.103000
     34 HAJ          3.3550     0.3270    10.0880 ha         1 HIZ       0.130000
     35 HAK          2.5390    -0.1670     7.8160 ha         1 HIZ       0.138000
     36 HAL          2.9230     1.9370     1.4310 h4         1 HIZ       0.168000
     37 HAM          3.6150    -4.2790     8.3260 ha         1 HIZ       0.121000
     38 HAN          3.1090    -2.3870    -2.8350 h1         1 HIZ       0.004700
     39 HANA         1.5980    -3.2230    -2.4530 h1         1 HIZ       0.004700
     40 HAO          3.0590    -1.2960    -0.6460 h1         1 HIZ       0.035200
     41 HAOA         1.5470    -2.1320    -0.2640 h1         1 HIZ       0.035200
     42 HNAQ         2.1220    -3.4150     6.4460 hn         1 HIZ       0.167500
     43 HNAR         1.6520    -2.6990     4.2720 hn         1 HIZ       0.178500
     44 HBB          1.8310     0.8840    -0.5110 hx         1 HIZ       0.094700
     45 NAR          2.1330    -1.8400     4.4520 ns         1 HIZ      -0.069400
     46 HAA3         0.2780     0.8430    -0.4620 hn         1 HIZ       0.257467
     47 FAC          4.3900    -1.4230    11.7260 f          1 HIZ      -0.112900
@<TRIPOS>BOND
     1     1    26 1   
     2     1    27 1   
     3     1    28 1   
     4     1    46 1   
     5     2    19 2   
     6     3    23 1   
     7     4     5 ar  
     8     4     6 ar  
     9     4    29 1   
    10     5     7 ar  
    11     5    30 1   
    12     6     8 ar  
    13     6    31 1   
    14     7    20 ar  
    15     7    32 1   
    16     8    20 ar  
    17     8    33 1   
    18     9    10 ar  
    19     9    21 ar  
    20     9    34 1   
    21    10    22 ar  
    22    10    35 1   
    23    11    18 1   
    24    11    24 2   
    25    11    36 1   
    26    12    22 ar  
    27    12    23 ar  
    28    12    37 1   
    29    13    17 1   
    30    13    20 1   
    31    13    38 1   
    32    13    39 1   
    33    14    17 1   
    34    14    26 1   
    35    14    40 1   
    36    14    41 1   
    37    15    24 1   
    38    15    25 2   
    39    16    19 1   
    40    16    22 1   
    41    16    42 1   
    42    18    25 1   
    43    19    45 1   
    44    21    23 ar  
    45    21    47 1   
    46    24    26 1   
    47    25    45 1   
    48    26    44 1   
    49    43    45 1   
@<TRIPOS>SUBSTRUCTURE
     1 HIZ         1 TEMP              0 ****  ****    0 ROOT
