@<TRIPOS>MOLECULE
molecule
   33    33     1     0     0
SMALL
bcc


@<TRIPOS>ATOM
      1 C02          0.0000     0.0000     0.0000 c3         1 HJ1       0.109800
      2 C03          1.5300     0.0000     0.0000 c3         1 HJ1      -0.198400
      3 C04          2.0320     0.0000     1.4220 c          1 HJ1       0.663100
      4 C07          3.8450    -0.0000     3.0490 c3         1 HJ1       0.111000
      5 C08          5.3750    -0.0000     3.0500 c3         1 HJ1      -0.047100
      6 C09          5.8770    -0.0000     4.4700 ca         1 HJ1      -0.088300
      7 C10          6.1010     1.1980     5.1230 ca         1 HJ1      -0.116000
      8 C11          6.5610     1.2030     6.4270 ca         1 HJ1      -0.147000
      9 C12          6.7980     0.0060     7.0830 ca         1 HJ1       0.104100
     10 C14          6.5720    -1.2000     6.4260 ca         1 HJ1       0.091100
     11 C16          6.1070    -1.1980     5.1210 ca         1 HJ1      -0.151000
     12 N01         -0.4890     0.0000    -1.3860 nz         1 HJ1      -0.814600
     13 N06          3.3570     0.0000     1.6680 ns         1 HJ1      -0.562900
     14 O05          1.2440    -0.0000     2.3430 o          1 HJ1      -0.593100
     15 O13          7.2510     0.0090     8.3650 oh         1 HJ1      -0.506100
     16 O15          6.8040    -2.3780     7.0650 oh         1 HJ1      -0.506100
     17 H1          -0.3610     0.8840     0.5110 hx         1 HJ1       0.130700
     18 H2          -0.3610    -0.8850     0.5100 hx         1 HJ1       0.130700
     19 H3           1.8910    -0.8850    -0.5110 hc         1 HJ1       0.079700
     20 H4           1.8910     0.8850    -0.5110 hc         1 HJ1       0.079700
     21 H5           3.4830     0.8840     3.5600 h1         1 HJ1       0.069700
     22 H6           3.4840    -0.8850     3.5590 h1         1 HJ1       0.069700
     23 H7           5.7360     0.8840     2.5400 hc         1 HJ1       0.054700
     24 H8           5.7360    -0.8840     2.5400 hc         1 HJ1       0.054700
     25 H9           5.9230     2.1350     4.6090 ha         1 HJ1       0.134000
     26 H10          6.7210     2.1430     6.9410 ha         1 HJ1       0.151000
     27 H11          6.1200    -2.1930     4.6930 ha         1 HJ1       0.147000
     28 H12         -0.1550     0.8170    -1.8580 hn         1 HJ1       0.457467
     29 H13         -1.4900     0.0000    -1.3870 hn         1 HJ1       0.457467
     30 H15          4.0080     0.0000     0.9080 hn         1 HJ1       0.320500
     31 H16          8.1610     0.2570     8.3760 ho         1 HJ1       0.430000
     32 H17          5.9840    -2.7570     7.3340 ho         1 HJ1       0.427000
     33 H013        -0.1700    -0.8260    -1.8530 hn         1 HJ1       0.457467
@<TRIPOS>BOND
     1     8     7 ar
     2     8     9 ar
     3    15     9 1
     4     7     6 ar
     5     9    10 ar
     6    14     3 2
     7     6     5 1
     8     6    11 ar
     9    10    11 ar
    10    10    16 1
    11     3    13 1
    12     3     2 1
    13    13     4 1
    14     5     4 1
    15     2     1 1
    16     1    12 1
    17     1    17 1
    18     1    18 1
    19     2    19 1
    20     2    20 1
    21     4    21 1
    22     4    22 1
    23     5    23 1
    24     5    24 1
    25     7    25 1
    26     8    26 1
    27    11    27 1
    28    12    28 1
    29    12    29 1
    30    13    30 1
    31    15    31 1
    32    16    32 1
    33    33    12 1
@<TRIPOS>SUBSTRUCTURE
     1 HJ1         1 TEMP              0 ****  ****    0 ROOT
