@<TRIPOS>MOLECULE
HJ2
   48    44     1     0     0
SMALL
bcc


@<TRIPOS>ATOM
      1 C7          1.4520   -0.8010    1.2120 c2        1 HJ2     -0.124000
      2 H7          0.0550   -2.2520    0.4320 h4        1 HJ2      0.163000
      3 C6          0.5910   -1.2930    0.2790 c2        1 HJ2     -0.052000
      4 S1          3.8210    3.8730    0.2420 sh        1 HJ2     -0.245000
      5 C2         -3.0970   -1.4840   -0.2410 c2        1 HJ2     -0.122000
      6 N5          0.3750   -0.7200   -0.9850 n3        1 HJ2     -0.209000
      7 C4         -0.9590   -0.5010   -1.3790 c2        1 HJ2      0.013000
      8 C13        -1.1420    0.2790   -2.6410 c2        1 HJ2      0.258000
      9 O14        -1.4100   -0.1440   -3.7560 o         1 HJ2     -0.246000
     10 O15        -1.0640    1.7000   -2.6040 os        1 HJ2     -0.116000
     11 C3         -2.0340   -0.9950   -0.7930 c1        1 HJ2     -0.217000
     12 N2          1.6990   -1.4910    2.4260 n         1 HJ2     -0.273000
     13 H6          2.6970    3.7150   -0.4540 hs        1 HJ2      0.119000
     14 H2         -3.6930   -0.9190    0.4920 ha        1 HJ2      0.125000
     15 HN5         0.9740    0.0710   -1.1800 hn        1 HJ2      0.232000
     16 C81        -0.6090    2.4220   -1.6500 c1        1 HJ2     -0.005000
     17 H4         -3.4660   -2.4960   -0.4690 ha        1 HJ2      0.125000
     18 H5          2.1940   -0.8900    3.0660 hn        1 HJ2      0.210000
     19 C9          2.2080   -2.8040    2.4100 c2        1 HJ2      0.314000
     20 C10         3.3780   -3.0430    3.3050 c2        1 HJ2     -0.221000
     21 O5          1.6880   -3.7170    1.7460 o         1 HJ2     -0.335000
     22 C11         4.4490   -2.2460    3.2240 c2        1 HJ2     -0.134000
     23 H61         2.1630    1.1060    4.4220 ha        1 HJ2      0.003500
     24 H71         2.0420    1.2760    3.7760 ha        1 HJ2      0.003500
     25 C12         5.6640   -2.3880    4.0570 c3        1 HJ2     -0.149000
     26 H8          3.2990   -3.9050    3.9810 ha        1 HJ2      0.147000
     27 H9          4.4700   -1.4210    2.4830 ha        1 HJ2      0.144000
     28 C131        6.5500   -1.1570    4.0350 c3        1 HJ2     -0.165000
     29 H10         6.2630   -3.2630    3.6800 hc        1 HJ2      0.098500
     30 H11         5.3780   -2.6230    5.1190 hc        1 HJ2      0.098500
     31 C14         5.9010    0.0750    4.6480 c3        1 HJ2     -0.204000
     32 H12         7.4670   -1.3750    4.6540 hc        1 HJ2      0.116000
     33 H13         6.8980   -0.9580    2.9870 hc        1 HJ2      0.116000
     34 C15         6.9970    0.9360    5.4310 c2        1 HJ2      0.346000
     35 N3          5.1840    0.9380    3.6650 n4        1 HJ2     -0.053000
     36 H14         5.1500   -0.2380    5.4270 hx        1 HJ2      0.120000
     37 O6          7.7430    0.2910    6.1950 o         1 HJ2     -0.514500
     38 O7          6.9730    2.1760    5.2200 o         1 HJ2     -0.514500
     39 H15        -2.5890    3.2550   -0.6690 ha        1 HJ2      0.003500
     40 H16        -2.5640    2.7250   -0.2450 ha        1 HJ2      0.003500
     41 H17        -0.1820    1.9860   -0.7230 ha        1 HJ2      0.091000
     42 H18         5.4440    0.7180    2.7010 hn        1 HJ2      0.253333
     43 H19         4.1650    0.8350    3.7290 hn        1 HJ2      0.253333
     44 C8          2.2170    0.5060    1.0490 c2        1 HJ2      0.381000
     45 O4          1.8500    1.3530    0.1880 o         1 HJ2     -0.606000
     46 O9          3.2270    0.7140    1.8010 o         1 HJ2     -0.606000
     47 H22         3.7230    2.6700    0.8510 hs        1 HJ2      0.119000
     48 H33         5.4480    1.9210    3.8650 hn        1 HJ2      0.253333
@<TRIPOS>BOND
     1    1    3 1
     2    1   12 1
     3    1   44 1
     4    2    3 1
     5    3    6 1
     6    4   13 1
     7    4   47 1
     8    5   11 1
     9    5   14 1
    10    5   17 1
    11    6    7 1
    12    6   15 1
    13    7    8 1
    14    7   11 1
    15    8    9 1
    16    8   10 1
    17   10   16 1
    18   12   18 1
    19   12   19 1
    20   16   41 1
    21   19   20 1
    22   19   21 1
    23   20   22 1
    24   20   26 1
    25   22   25 1
    26   22   27 1
    27   23   24 1
    28   25   28 1
    29   25   29 1
    30   25   30 1
    31   28   31 1
    32   28   32 1
    33   28   33 1
    34   31   34 1
    35   31   35 1
    36   31   36 1
    37   34   37 1
    38   34   38 1
    39   35   42 1
    40   35   43 1
    41   35   48 1
    42   39   40 1
    43   44   45 1
    44   44   46 1
@<TRIPOS>SUBSTRUCTURE
     1 HJ2         1 TEMP              0 ****  ****    0 ROOT
