@<TRIPOS>MOLECULE
HJ3
   50    45     1     0     0
SMALL
bcc


@<TRIPOS>ATOM
      1 O11         3.6930    2.1250    0.4930 o         1 HJ3     -0.468000
      2 C10         3.3650    1.8220    1.6710 c2        1 HJ3      0.314000
      3 CA1         1.9180    1.8730    2.1110 c3        1 HJ3     -0.187000
      4 CB1         1.6900    2.8500    3.2450 c3        1 HJ3     -0.152000
      5 N9          4.3200    1.4280    2.5610 n         1 HJ3     -0.410000
      6 C6          3.6590    1.2370   -2.5360 c2        1 HJ3     -0.304000
      7 C7          2.2560    1.0670   -2.2710 c1        1 HJ3     -0.028000
      8 O8          1.6490    1.7460   -1.3520 oh        1 HJ3     -0.161000
      9 C5          4.2670    0.7010   -3.6170 c2        1 HJ3     -0.255000
     10 S1          3.4660   -0.1100   -4.8240 ss        1 HJ3      0.443000
     11 N4          0.5530   -0.8170   -3.1530 n3        1 HJ3     -0.210000
     12 C3         -0.3000   -1.3870   -2.3690 c2        1 HJ3     -0.003000
     13 C12        -1.1970   -2.5950   -2.8030 c2        1 HJ3      0.354000
     14 O14        -1.8730   -3.0920   -1.8750 o         1 HJ3     -0.493500
     15 O13        -1.1220   -2.9230   -4.0060 o         1 HJ3     -0.493500
     16 C2          4.6320   -0.7230   -5.9000 c2        1 HJ3     -0.304000
     17 C16         5.9620   -0.7110   -5.8120 c2        1 HJ3     -0.197000
     18 C15         3.9270   -1.3460   -7.0500 c3        1 HJ3     -0.181000
     19 HA1         1.2990    2.1690    1.2220 hc        1 HJ3      0.118500
     20 HA1A        1.5880    0.8450    2.4270 hc        1 HJ3      0.118500
     21 C121        0.2370    2.8580    3.6510 c3        1 HJ3     -0.219000
     22 HB1         2.0060    3.8780    2.9290 hc        1 HJ3      0.084000
     23 HB1A        2.3190    2.5640    4.1300 hc        1 HJ3      0.084000
     24 HN9         5.2640    1.3620    2.2720 hn        1 HJ3      0.240000
     25 H6          4.2570    1.8020   -1.7910 ha        1 HJ3      0.164000
     26 H7          2.2120    2.3840   -0.8500 ho        1 HJ3      0.238000
     27 H5          5.3610    0.8410   -3.7050 h4        1 HJ3      0.152000
     28 HN4         0.6280   -1.1580   -4.0950 hn        1 HJ3      0.282500
     29 H3          1.2190   -0.0130   -2.8550 hn        1 HJ3      0.282500
     30 H16         6.5170   -0.2680   -4.9750 ha        1 HJ3      0.126500
     31 H16A       -0.4110   -1.0330   -1.3240 h4        1 HJ3      0.153000
     32 H16B        6.5940   -1.1580   -6.5930 ha        1 HJ3      0.126500
     33 H15         4.1690   -0.7990   -7.9950 hc        1 HJ3      0.100333
     34 H15A        2.8150   -1.3260   -6.9100 hc        1 HJ3      0.100333
     35 H15B        4.2420   -2.4130   -7.1670 hc        1 HJ3      0.100333
     36 C13        -1.3520   -2.7600    1.0680 c1        1 HJ3     -0.010000
     37 H18        -0.0930    1.8270    3.9340 hc        1 HJ3      0.082000
     38 H19        -0.4060    3.2120    2.8090 hc        1 HJ3      0.082000
     39 H20        -1.8810   -3.1290    0.2060 ha        1 HJ3      0.292000
     40 H21         0.0840    3.5370    4.5230 hc        1 HJ3      0.082000
     41 C14        -0.7330   -2.3420    2.0060 c1        1 HJ3     -0.336000
     42 N3          2.5820   -0.3010    4.8810 n3        1 HJ3     -0.413000
     43 H22         0.6320   -3.5430    3.6070 ho        1 HJ3      0.242000
     44 C151       -0.0050   -1.7920    3.0900 c2        1 HJ3      0.442000
     45 O6          0.0810   -0.6080    3.4280 o         1 HJ3     -0.329000
     46 H24         2.6500   -0.4810    5.8610 hn        1 HJ3      0.137000
     47 H25         1.7860    0.2890    4.7210 hn        1 HJ3      0.137000
     48 O5          0.7380   -2.6230    3.8870 oh        1 HJ3     -0.305000
     49 H92         4.0730    1.1210    3.4700 hn        1 HJ3      0.240000
     50 H33         2.4120   -1.1710    4.4130 hn        1 HJ3      0.137000
@<TRIPOS>BOND
     1    1    2 1   
     2    2    3 1   
     3    2    5 1   
     4    3    4 1   
     5    3   19 1   
     6    3   20 1   
     7    4   21 1   
     8    4   22 1   
     9    4   23 1   
    10    5   24 1   
    11    5   49 1   
    12    6    7 1   
    13    6    9 1   
    14    6   25 1   
    15    7    8 1   
    16    8   26 1   
    17    9   10 1   
    18    9   27 1   
    19   10   16 1   
    20   11   12 1   
    21   11   28 1   
    22   11   29 1   
    23   12   13 1   
    24   12   31 1   
    25   13   14 1   
    26   13   15 1   
    27   16   17 1   
    28   16   18 1   
    29   17   30 1   
    30   17   32 1   
    31   18   33 1   
    32   18   34 1   
    33   18   35 1   
    34   21   37 1   
    35   21   38 1   
    36   21   40 1   
    37   36   39 1   
    38   36   41 1   
    39   41   44 1   
    40   42   46 1   
    41   42   47 1   
    42   42   50 1   
    43   43   48 1   
    44   44   45 1   
    45   44   48 1   
@<TRIPOS>SUBSTRUCTURE
     1 HJ3         1 TEMP              0 ****  ****    0 ROOT
