@<TRIPOS>MOLECULE
HJ4
   76    83     1     0     0
SMALL
bcc


@<TRIPOS>ATOM
      1 C2           0.0000     0.0000     0.0000 cu         1 HJ4       0.229000
      2 C3           1.5050     0.0000     0.0000 c3         1 HJ4      -0.514000
      3 C4           2.0260     0.0000     1.4400 DU         1 HJ4      -0.244000
      4 C5           1.3360    -1.1040     2.2070 c2         1 HJ4       0.042000
      5 C6           2.0220    -1.8590     3.0650 c2         1 HJ4       0.021000
      6 C7           3.4890    -1.5330     3.2630 c3         1 HJ4      -0.007000
      7 C11          5.0160     0.5330     6.0280 c2         1 HJ4      -0.248000
      8 C12          3.9780     0.5690     6.9510 c2         1 HJ4       0.019000
      9 N13          4.0840     1.0580     8.0240 n3         1 HJ4       0.144000
     10 C15          2.9860     0.7560     9.1450 c3         1 HJ4      -0.120500
     11 C16          2.8100    -0.1540     6.7150 c2         1 HJ4      -0.331000
     12 C17          2.6810    -0.9180     5.5470 c3         1 HJ4       0.054000
     13 C18          4.3360    -2.8140     3.2950 c3         1 HJ4      -0.115000
     14 C19          3.7010    -3.7470     4.3110 c3         1 HJ4      -0.035000
     15 C21          2.3320    -4.1910     3.7310 c3         1 HJ4      -0.117000
     16 C23          3.3230    -6.1130     4.8120 c3         1 HJ4      -0.164000
     17 C24          4.4330    -5.0670     4.5430 c3         1 HJ4       0.257000
     18 C27          6.5810    -6.4720     1.5240 c3         1 HJ4       0.042000
     19 C30          7.7520    -5.3840     1.3480 c3         1 HJ4      -0.102667
     20 C32          1.3900    -2.9980     3.8240 c3         1 HJ4      -0.145000
     21 C33          0.0230    -3.3940     3.2890 c3         1 HJ4      -0.124000
     22 C34         -0.8420    -2.1690     2.9940 c3         1 HJ4      -0.002000
     23 C35         -0.0980    -1.3070     2.0060 c2         1 HJ4      -0.309000
     24 C36         -0.7260    -0.7250     0.9600 cx         1 HJ4       0.039000
     25 O1          -0.6030    -0.7270    -0.7300 op         1 HJ4      -0.262000
     26 C9           3.6620    -0.7920     4.5630 c2         1 HJ4      -0.233000
     27 C10          4.8910    -0.2270     4.8620 c2         1 HJ4      -0.005000
     28 C14          4.3450     2.4890     8.2750 c3         1 HJ4      -0.120500
     29 C20          3.4230    -2.8570     5.5500 c3         1 HJ4      -0.322000
     30 C22          1.9710    -5.3690     4.6450 c3         1 HJ4      -0.075000
     31 C25          5.1510    -5.4160     3.4390 c1         1 HJ4      -0.213000
     32 C26          5.7780    -5.7250     2.4360 c1         1 HJ4      -0.102000
     33 C28          7.3840    -7.6880     1.6300 c3         1 HJ4      -0.102667
     34 C29          5.7710    -6.2320     0.0940 c3         1 HJ4      -0.102667
     35 O31          5.2780    -4.9630     5.6710 oh         1 HJ4      -0.295000
     36 H1           1.8530     0.3930    -0.9470 hc         1 HJ4       0.161000
     37 H2           1.8530     0.6420     0.8000 DU         1 HJ4       0.244000
     38 H3           3.1040     0.1090     1.4210 ha         1 HJ4       0.130000
     39 H4           1.7730    -0.9470     1.9020 ha         1 HJ4       0.130000
     40 H5           3.8250    -0.9070     2.4450 hc         1 HJ4       0.090000
     41 H6           5.9240     1.0960     6.2120 ha         1 HJ4       0.113000
     42 H7           2.0320     1.1680     8.8370 h1         1 HJ4       0.054000
     43 H8           3.2900     1.2090    10.0800 h1         1 HJ4       0.054000
     44 H9           2.8910    -0.3150     9.2770 h1         1 HJ4       0.054000
     45 H10          2.0020    -0.1250     7.4360 ha         1 HJ4       0.133000
     46 H11          1.7730    -1.4790     5.3650 hc         1 HJ4       0.150000
     47 H12          5.3550    -2.5560     3.5600 hc         1 HJ4       0.074000
     48 H13          4.3260    -3.2680     2.3110 hc         1 HJ4       0.074000
     49 H14          2.5070    -4.3790     2.6780 hc         1 HJ4       0.077000
     50 H15          3.1030    -6.1640     5.8710 hc         1 HJ4       0.078000
     51 H16          3.6230    -7.0840     4.4360 hc         1 HJ4       0.078000
     52 H17          8.3660    -5.6490     0.4960 hc         1 HJ4       0.046333
     53 H18          8.3630    -5.3650     2.2420 hc         1 HJ4       0.046333
     54 H19          7.3150    -4.4060     1.1880 hc         1 HJ4       0.046333
     55 H20          1.8140    -2.3720     3.0480 hc         1 HJ4       0.104000
     56 H21         -0.4530    -4.0550     4.0030 hc         1 HJ4       0.070500
     57 H22          0.1550    -3.9210     2.3520 hc         1 HJ4       0.070500
     58 H23         -1.7730    -2.4960     2.5480 hc         1 HJ4       0.060000
     59 H24         -1.0510    -1.6550     3.9240 hc         1 HJ4       0.060000
     60 H25         -1.7540    -0.4610     1.1750 h1         1 HJ4       0.123000
     61 H26          5.7010    -0.2540     4.1430 ha         1 HJ4       0.099000
     62 H27          4.8570     2.6020     9.2230 h1         1 HJ4       0.054000
     63 H28          3.4050     3.0280     8.3070 h1         1 HJ4       0.054000
     64 H29          4.9630     2.8890     7.4810 h1         1 HJ4       0.054000
     65 H30          2.6620    -3.3220     6.1650 hc         1 HJ4       0.073500
     66 H31          4.3340    -2.7450     6.1260 hc         1 HJ4       0.073500
     67 H32          3.0790    -1.8830     5.2250 DU         1 HJ4       0.233000
     68 H33          1.2040    -5.0750     5.3510 hc         1 HJ4       0.070500
     69 H34          1.6430    -6.2160     4.0540 hc         1 HJ4       0.070500
     70 H35          8.0250    -7.6230     2.5000 hc         1 HJ4       0.046333
     71 H36          7.9920    -7.7980     0.7400 hc         1 HJ4       0.046333
     72 H37          6.7290    -8.5460     1.7270 hc         1 HJ4       0.046333
     73 H38          6.3820    -6.5810    -0.7300 hc         1 HJ4       0.046333
     74 H39          5.5630    -5.1760    -0.0320 hc         1 HJ4       0.046333
     75 H40          4.8390    -6.7840     0.1100 hc         1 HJ4       0.046333
     76 H41          5.7390    -5.7760     5.7960 ho         1 HJ4       0.190000
@<TRIPOS>BOND
     1     1     2 1   
     2     1    24 1   
     3     1    25 1   
     4     2     3 1   
     5     2    36 1   
     6     2    37 1   
     7     3     4 1   
     8     3    37 1   
     9     3    38 1   
    10     3    39 1   
    11     4     5 1   
    12     4    23 1   
    13     5     6 1   
    14     5    20 1   
    15     6    13 1   
    16     6    26 1   
    17     6    40 1   
    18     7     8 1   
    19     7    27 1   
    20     7    41 1   
    21     8     9 1   
    22     8    11 1   
    23     9    10 1   
    24     9    28 1   
    25    10    42 1   
    26    10    43 1   
    27    10    44 1   
    28    11    12 1   
    29    11    45 1   
    30    12    26 1   
    31    12    46 1   
    32    12    67 1   
    33    13    14 1   
    34    13    47 1   
    35    13    48 1   
    36    14    15 1   
    37    14    17 1   
    38    14    29 1   
    39    15    20 1   
    40    15    30 1   
    41    15    49 1   
    42    16    17 1   
    43    16    30 1   
    44    16    50 1   
    45    16    51 1   
    46    17    31 1   
    47    17    35 1   
    48    18    19 1   
    49    18    32 1   
    50    18    33 1   
    51    18    34 1   
    52    19    52 1   
    53    19    53 1   
    54    19    54 1   
    55    20    21 1   
    56    20    55 1   
    57    21    22 1   
    58    21    56 1   
    59    21    57 1   
    60    22    23 1   
    61    22    58 1   
    62    22    59 1   
    63    23    24 1   
    64    24    25 1   
    65    24    60 1   
    66    26    27 1   
    67    27    61 1   
    68    28    62 1   
    69    28    63 1   
    70    28    64 1   
    71    29    65 1   
    72    29    66 1   
    73    29    67 1   
    74    30    68 1   
    75    30    69 1   
    76    31    32 1   
    77    33    70 1   
    78    33    71 1   
    79    33    72 1   
    80    34    73 1   
    81    34    74 1   
    82    34    75 1   
    83    35    76 1   
@<TRIPOS>SUBSTRUCTURE
     1 HJ4         1 TEMP              0 ****  ****    0 ROOT
