@<TRIPOS>MOLECULE
molecule
   76    80     1     0     0
SMALL
bcc


@<TRIPOS>ATOM
      1 C2           0.0000     0.0000     0.0000 c          1 HJ4       0.508300
      2 C3           1.5050     0.0000     0.0000 c3         1 HJ4      -0.506400
      3 C4           2.0260     0.0000     1.4400 c3         1 HJ4      -0.245200
      4 C5           1.3360    -1.1040     2.2070 ce         1 HJ4      -0.086200
      5 C6           2.0220    -1.8590     3.0650 c2         1 HJ4      -0.070400
      6 C7           3.4890    -1.5330     3.2630 c3         1 HJ4      -0.003200
      7 C11          5.0160     0.5330     6.0280 ca         1 HJ4      -0.298500
      8 C12          3.9780     0.5690     6.9510 ca         1 HJ4       0.238600
      9 N13          4.0840     1.0580     8.0240 nh         1 HJ4      -0.605000
     10 C15          2.9860     0.7560     9.1450 c3         1 HJ4       0.172600
     11 C16          2.8100    -0.1540     6.7150 ca         1 HJ4      -0.298500
     12 C17          2.6810    -0.9180     5.5470 ca         1 HJ4      -0.003500
     13 C18          4.3360    -2.8140     3.2950 c3         1 HJ4      -0.074400
     14 C19          3.7010    -3.7470     4.3110 c3         1 HJ4      -0.038000
     15 C21          2.3320    -4.1910     3.7310 c3         1 HJ4      -0.089700
     16 C23          3.3230    -6.1130     4.8120 c3         1 HJ4      -0.127400
     17 C24          4.4330    -5.0670     4.5430 c3         1 HJ4       0.259900
     18 C27          6.5810    -6.4720     1.5240 c3         1 HJ4      -0.018900
     19 C30          7.7520    -5.3840     1.3480 c3         1 HJ4      -0.071767
     20 C32          1.3900    -2.9980     3.8240 c3         1 HJ4      -0.120500
     21 C33          0.0230    -3.3940     3.2890 c3         1 HJ4      -0.092400
     22 C34         -0.8420    -2.1690     2.9940 c3         1 HJ4       0.005800
     23 C35         -0.0980    -1.3070     2.0060 cf         1 HJ4      -0.303200
     24 C36         -0.7260    -0.7250     0.9600 ce         1 HJ4      -0.013200
     25 O1          -0.6030    -0.7270    -0.7300 o          1 HJ4      -0.515100
     26 C9           3.6620    -0.7920     4.5630 ca         1 HJ4      -0.230300
     27 C10          4.8910    -0.2270     4.8620 ca         1 HJ4      -0.003500
     28 C14          4.3450     2.4890     8.2750 c3         1 HJ4       0.172600
     29 C20          3.4230    -2.8570     5.5500 c3         1 HJ4      -0.179100
     30 C22          1.9710    -5.3690     4.6450 c3         1 HJ4      -0.058400
     31 C25          5.1510    -5.4160     3.4390 c1         1 HJ4      -0.180100
     32 C26          5.7780    -5.7250     2.4360 c1         1 HJ4      -0.071100
     33 C28          7.3840    -7.6880     1.6300 c3         1 HJ4      -0.071767
     34 C29          5.7710    -6.2320     0.0940 c3         1 HJ4      -0.071767
     35 O31          5.2780    -4.9630     5.6710 oh         1 HJ4      -0.579800
     36 H1           1.8530     0.3930    -0.9470 hc         1 HJ4       0.198200
     37 H2           1.8530     0.6420     0.8000 hc         1 HJ4       0.198200
     38 H3           3.1040     0.1090     1.4210 hc         1 HJ4       0.172200
     39 H4           1.7730    -0.9470     1.9020 hc         1 HJ4       0.172200
     40 H5           3.8250    -0.9070     2.4450 hc         1 HJ4       0.074700
     41 H6           5.9240     1.0960     6.2120 ha         1 HJ4       0.132500
     42 H7           2.0320     1.1680     8.8370 h1         1 HJ4       0.045700
     43 H8           3.2900     1.2090    10.0800 h1         1 HJ4       0.045700
     44 H9           2.8910    -0.3150     9.2770 h1         1 HJ4       0.045700
     45 H10          2.0020    -0.1250     7.4360 ha         1 HJ4       0.132500
     46 H11          1.7730    -1.4790     5.3650 ha         1 HJ4       0.142000
     47 H12          5.3550    -2.5560     3.5600 hc         1 HJ4       0.060200
     48 H13          4.3260    -3.2680     2.3110 hc         1 HJ4       0.060200
     49 H14          2.5070    -4.3790     2.6780 hc         1 HJ4       0.059700
     50 H15          3.1030    -6.1640     5.8710 hc         1 HJ4       0.068200
     51 H16          3.6230    -7.0840     4.4360 hc         1 HJ4       0.068200
     52 H17          8.3660    -5.6490     0.4960 hc         1 HJ4       0.039256
     53 H18          8.3630    -5.3650     2.2420 hc         1 HJ4       0.039256
     54 H19          7.3150    -4.4060     1.1880 hc         1 HJ4       0.039256
     55 H20          1.8140    -2.3720     3.0480 hc         1 HJ4       0.171700
     56 H21         -0.4530    -4.0550     4.0030 hc         1 HJ4       0.060700
     57 H22          0.1550    -3.9210     2.3520 hc         1 HJ4       0.060700
     58 H23         -1.7730    -2.4960     2.5480 hc         1 HJ4       0.052700
     59 H24         -1.0510    -1.6550     3.9240 hc         1 HJ4       0.052700
     60 H25         -1.7540    -0.4610     1.1750 ha         1 HJ4       0.151000
     61 H26          5.7010    -0.2540     4.1430 ha         1 HJ4       0.142000
     62 H27          4.8570     2.6020     9.2230 h1         1 HJ4       0.045700
     63 H28          3.4050     3.0280     8.3070 h1         1 HJ4       0.045700
     64 H29          4.9630     2.8890     7.4810 h1         1 HJ4       0.045700
     65 H30          2.6620    -3.3220     6.1650 hc         1 HJ4       0.092033
     66 H31          4.3340    -2.7450     6.1260 hc         1 HJ4       0.092033
     67 H32          3.0790    -1.8830     5.2250 hc         1 HJ4       0.092033
     68 H33          1.2040    -5.0750     5.3510 hc         1 HJ4       0.063200
     69 H34          1.6430    -6.2160     4.0540 hc         1 HJ4       0.063200
     70 H35          8.0250    -7.6230     2.5000 hc         1 HJ4       0.039256
     71 H36          7.9920    -7.7980     0.7400 hc         1 HJ4       0.039256
     72 H37          6.7290    -8.5460     1.7270 hc         1 HJ4       0.039256
     73 H38          6.3820    -6.5810    -0.7300 hc         1 HJ4       0.039256
     74 H39          5.5630    -5.1760    -0.0320 hc         1 HJ4       0.039256
     75 H40          4.8390    -6.7840     0.1100 hc         1 HJ4       0.039256
     76 H41          5.7390    -5.7760     5.7960 ho         1 HJ4       0.405000
@<TRIPOS>BOND
     1    25     1 2
     2    24     1 1
     3    24    23 2
     4     1     2 1
     5    22    23 1
     6    22    21 1
     7    23     4 1
     8    21    20 1
     9     2     3 1
    10     4     3 1
    11     4     5 2
    12    19    18 1
    13    20     5 1
    14    20    15 1
    15     5     6 1
    16    30    15 1
    17    30    16 1
    18    34    18 1
    19    15    14 1
    20    18    32 1
    21    18    33 1
    22    32    31 3
    23    16    17 1
    24     6    13 1
    25     6    26 1
    26    31    17 1
    27    14    13 1
    28    14    17 1
    29    14    29 1
    30    17    35 1
    31    12    26 ar
    32    12    11 ar
    33    26    27 ar
    34    11     8 ar
    35    27     7 ar
    36     8     7 ar
    37     8     9 1
    38     9    10 1
    39     9    28 1
    40     2    36 1
    41     2    37 1
    42     3    38 1
    43     3    39 1
    44     6    40 1
    45     7    41 1
    46    10    42 1
    47    10    43 1
    48    10    44 1
    49    11    45 1
    50    12    46 1
    51    13    47 1
    52    13    48 1
    53    15    49 1
    54    16    50 1
    55    16    51 1
    56    19    52 1
    57    19    53 1
    58    19    54 1
    59    20    55 1
    60    21    56 1
    61    21    57 1
    62    22    58 1
    63    22    59 1
    64    24    60 1
    65    27    61 1
    66    28    62 1
    67    28    63 1
    68    28    64 1
    69    29    65 1
    70    29    66 1
    71    29    67 1
    72    30    68 1
    73    30    69 1
    74    33    70 1
    75    33    71 1
    76    33    72 1
    77    34    73 1
    78    34    74 1
    79    34    75 1
    80    35    76 1
@<TRIPOS>SUBSTRUCTURE
     1 HJ4         1 TEMP              0 ****  ****    0 ROOT
