@<TRIPOS>MOLECULE
molecule
   17    16     1     0     0
SMALL
bcc


@<TRIPOS>ATOM
      1 C02          0.0000     0.0000     0.0000 c          1 HJ7       0.435300
      2 C03          1.4920     0.0000     0.0000 c          1 HJ7       0.817600
      3 C06         -0.7360     0.0000     1.2740 ce         1 HJ7      -0.613200
      4 C07         -2.0760    -0.1390     1.2780 cf         1 HJ7       0.163600
      5 C08         -2.7930    -0.4090     0.0180 c          1 HJ7       0.842800
      6 C11         -2.8420    -0.0190     2.5710 c3         1 HJ7      -0.154200
      7 C12         -3.3480     1.3930     2.7240 c          1 HJ7       0.920600
      8 O01         -0.6070     0.0050    -1.0510 o          1 HJ7      -0.551100
      9 O04          2.1650     0.0010    -1.1650 o          1 HJ7      -0.865800
     10 O05          2.0990     0.0000     1.0510 o          1 HJ7      -0.865800
     11 O09         -3.8050     0.3930    -0.3680 o          1 HJ7      -0.853300
     12 O10         -2.4730    -1.3560    -0.6720 o          1 HJ7      -0.853300
     13 O13         -4.0630     1.7350     3.8080 o          1 HJ7      -0.863800
     14 O14         -3.1110     2.2150     1.8720 o          1 HJ7      -0.863800
     15 H061        -0.4580    -0.9190     0.7720 ha         1 HJ7       0.252000
     16 H112        -3.6810    -0.7040     2.5600 hc         1 HJ7       0.026200
     17 H111        -2.1890    -0.2600     3.4010 hc         1 HJ7       0.026200
@<TRIPOS>BOND
     1    10     2 1
     2     9     2 1
     3     2     1 1
     4     1     3 1
     5     1     8 2
     6     3     4 2
     7     4     6 1
     8     4     5 1
     9     6     7 1
    10    12     5 1
    11     5    11 1
    12    14     7 1
    13     7    13 1
    14     3    15 1
    15     6    16 1
    16     6    17 1
@<TRIPOS>SUBSTRUCTURE
     1 HJ7         1 TEMP              0 ****  ****    0 ROOT
