@<TRIPOS>MOLECULE
molecule
   47    47     1     0     0
SMALL
bcc


@<TRIPOS>ATOM
      1 N01          0.0000     0.0000     0.0000 nz         1 HJA      -0.803600
      2 C02          1.4690     0.0000     0.0000 c3         1 HJA       0.103800
      3 C03          1.9790     0.0000     1.4420 c3         1 HJA      -0.029300
      4 N04          1.3950     1.1310     2.1660 ns         1 HJA      -0.547900
      5 C05          1.2690     1.0800     3.5080 c          1 HJA       0.750100
      6 O06          1.6380     0.0960     4.1150 o          1 HJA      -0.568000
      7 O07          0.7320     2.1200     4.1740 os         1 HJA      -0.412900
      8 C08          0.6260     1.9960     5.6160 c3         1 HJA       0.158400
      9 C09         -0.0020     3.2660     6.1930 c3         1 HJA      -0.086400
     10 C18          3.4810     0.1240     1.4440 c          1 HJA       0.554700
     11 O20          4.0110     1.0650     1.9960 o          1 HJA      -0.469100
     12 C10         -0.1130     3.1340     7.7140 c3         1 HJA      -0.082400
     13 C11         -0.7420     4.4040     8.2910 c3         1 HJA      -0.076400
     14 C12         -0.8530     4.2730     9.8110 c3         1 HJA      -0.006700
     15 C13         -1.3650     5.5880    10.4000 c3         1 HJA      -0.153400
     16 C14         -1.4760     5.4560    11.9210 c3         1 HJA      -0.061900
     17 C15         -2.4510     4.3290    12.2660 c3         1 HJA      -0.077400
     18 C16         -1.9380     3.0130    11.6760 c3         1 HJA      -0.061900
     19 C17         -1.8280     3.1450    10.1560 c3         1 HJA      -0.153400
     20 H012        -0.3340    -0.7170     0.6140 hn         1 HJA       0.463800
     21 H1          -0.3340    -0.1730    -0.9280 hn         1 HJA       0.463800
     22 H021         1.8300    -0.8850    -0.5110 hx         1 HJA       0.123700
     23 H022         1.8300     0.8840    -0.5110 hx         1 HJA       0.123700
     24 H031         1.6920    -0.9260     1.9260 h1         1 HJA       0.132700
     25 H041         1.8120     1.8960     1.6730 hn         1 HJA       0.317500
     26 H082         1.6140     1.8570     6.0400 h1         1 HJA       0.060700
     27 H081         0.0050     1.1430     5.8610 h1         1 HJA       0.060700
     28 H092         0.6190     4.1190     5.9480 hc         1 HJA       0.057700
     29 H091        -0.9900     3.4040     5.7690 hc         1 HJA       0.057700
     30 H101         0.8750     2.9950     8.1370 hc         1 HJA       0.050200
     31 H102        -0.7330     2.2800     7.9580 hc         1 HJA       0.050200
     32 H112        -0.1210     5.2570     8.0470 hc         1 HJA       0.050200
     33 H111        -1.7290     4.5420     7.8680 hc         1 HJA       0.050200
     34 H121         0.1200     4.0470    10.2310 hc         1 HJA       0.024700
     35 H132        -0.3410     5.2920    10.5920 hc         1 HJA       0.062200
     36 H131        -1.2500     6.5490     9.9120 hc         1 HJA       0.062200
     37 H141        -1.8410     6.3880    12.3370 hc         1 HJA       0.038950
     38 H142        -0.5010     5.2280    12.3340 hc         1 HJA       0.038950
     39 H152        -2.5270     4.2360    13.3420 hc         1 HJA       0.046200
     40 H151        -3.4250     4.5550    11.8480 hc         1 HJA       0.046200
     41 H161        -0.9630     2.7900    12.0900 hc         1 HJA       0.038950
     42 H162        -2.6310     2.2160    11.9190 hc         1 HJA       0.038950
     43 H172        -2.8030     3.3740     9.7420 hc         1 HJA       0.062200
     44 H171        -1.4630     2.2140     9.7390 hc         1 HJA       0.062200
     45 S1           4.4380    -1.0640     0.6670 sh         1 HJA      -0.317400
     46 H2           5.6250    -1.1310     1.2560 hs         1 HJA       0.291800
     47 H013        -0.3340     0.8960     0.2960 hn         1 HJA       0.463800
@<TRIPOS>BOND
     1     6     5 2
     2     5     4 1
     3     5     7 1
     4     4     3 1
     5     7     8 1
     6     8     9 1
     7     3     2 1
     8     3    10 1
     9    12     9 1
    10    12    13 1
    11     2     1 1
    12    18    19 1
    13    18    17 1
    14    19    14 1
    15    10    11 2
    16    14    13 1
    17    14    15 1
    18    17    16 1
    19    15    16 1
    20     1    20 1
    21     1    21 1
    22     2    22 1
    23     2    23 1
    24     3    24 1
    25     4    25 1
    26     8    26 1
    27     8    27 1
    28     9    28 1
    29     9    29 1
    30    12    30 1
    31    12    31 1
    32    13    32 1
    33    13    33 1
    34    14    34 1
    35    15    35 1
    36    15    36 1
    37    16    37 1
    38    16    38 1
    39    17    39 1
    40    17    40 1
    41    18    41 1
    42    18    42 1
    43    19    43 1
    44    19    44 1
    45    10    45 1
    46    45    46 1
    47    47     1 1
@<TRIPOS>SUBSTRUCTURE
     1 HJA         1 TEMP              0 ****  ****    0 ROOT
