@<TRIPOS>MOLECULE
HJA
   47    47     1     0     0
SMALL
bcc


@<TRIPOS>ATOM
      1 N01          0.0000     0.0000     0.0000 nz         1 HJA       0.090400
      2 C02          1.4690     0.0000     0.0000 c3         1 HJA      -0.043200
      3 C03          1.9790     0.0000     1.4420 c3         1 HJA      -0.092300
      4 N04          1.3950     1.1310     2.1660 ns         1 HJA      -0.226900
      5 C05          1.2690     1.0800     3.5080 c          1 HJA       0.709100
      6 O06          1.6380     0.0960     4.1150 o          1 HJA      -0.605000
      7 O07          0.7320     2.1200     4.1740 os         1 HJA      -0.398900
      8 C08          0.6260     1.9960     5.6160 c3         1 HJA       0.238400
      9 C09         -0.0020     3.2660     6.1930 c3         1 HJA      -0.039400
     10 C18          3.4810     0.1240     1.4440 c          1 HJA       0.602700
     11 O20          4.0110     1.0650     1.9960 o          1 HJA      -0.501100
     12 C10         -0.1130     3.1340     7.7140 c3         1 HJA      -0.029400
     13 C11         -0.7420     4.4040     8.2910 c3         1 HJA      -0.030400
     14 C12         -0.8530     4.2730     9.8110 c3         1 HJA       0.036300
     15 C13         -1.3650     5.5880    10.4000 c3         1 HJA      -0.124400
     16 C14         -1.4760     5.4560    11.9210 c3         1 HJA       0.004600
     17 C15         -2.4510     4.3290    12.2660 c3         1 HJA      -0.026400
     18 C16         -1.9380     3.0130    11.6760 c3         1 HJA       0.004600
     19 C17         -1.8280     3.1450    10.1560 c3         1 HJA      -0.124400
     20 H012        -0.3340    -0.7170     0.6140 hn         1 HJA       0.228133
     21 H1          -0.3340    -0.1730    -0.9280 hn         1 HJA       0.228133
     22 H021         1.8300    -0.8850    -0.5110 hx         1 HJA       0.096700
     23 H022         1.8300     0.8840    -0.5110 hx         1 HJA       0.096700
     24 H031         1.6920    -0.9260     1.9260 h1         1 HJA       0.101700
     25 H041         1.8120     1.8960     1.6730 hn         1 HJA       0.190500
     26 H082         1.6140     1.8570     6.0400 h1         1 HJA       0.019200
     27 H081         0.0050     1.1430     5.8610 h1         1 HJA       0.019200
     28 H092         0.6190     4.1190     5.9480 hc         1 HJA       0.025200
     29 H091        -0.9900     3.4040     5.7690 hc         1 HJA       0.025200
     30 H101         0.8750     2.9950     8.1370 hc         1 HJA       0.023200
     31 H102        -0.7330     2.2800     7.9580 hc         1 HJA       0.023200
     32 H112        -0.1210     5.2570     8.0470 hc         1 HJA       0.022200
     33 H111        -1.7290     4.5420     7.8680 hc         1 HJA       0.022200
     34 H121         0.1200     4.0470    10.2310 hc         1 HJA       0.007700
     35 H132        -0.3410     5.2920    10.5920 hc         1 HJA       0.039450
     36 H131        -1.2500     6.5490     9.9120 hc         1 HJA       0.039450
     37 H141        -1.8410     6.3880    12.3370 hc         1 HJA       0.009450
     38 H142        -0.5010     5.2280    12.3340 hc         1 HJA       0.009450
     39 H152        -2.5270     4.2360    13.3420 hc         1 HJA       0.018200
     40 H151        -3.4250     4.5550    11.8480 hc         1 HJA       0.018200
     41 H161        -0.9630     2.7900    12.0900 hc         1 HJA       0.009450
     42 H162        -2.6310     2.2160    11.9190 hc         1 HJA       0.009450
     43 H172        -2.8030     3.3740     9.7420 hc         1 HJA       0.039450
     44 H171        -1.4630     2.2140     9.7390 hc         1 HJA       0.039450
     45 S1           4.4380    -1.0640     0.6670 sh         1 HJA      -0.292400
     46 H2           5.6250    -1.1310     1.2560 hs         1 HJA       0.257800
     47 H013        -0.3340     0.8960     0.2960 hn         1 HJA       0.228133
@<TRIPOS>BOND
     1     1     2 1   
     2     1    20 1   
     3     1    21 1   
     4     1    47 1   
     5     2     3 1   
     6     2    22 1   
     7     2    23 1   
     8     3     4 1   
     9     3    10 1   
    10     3    24 1   
    11     4     5 1   
    12     4    25 1   
    13     5     6 2   
    14     5     7 1   
    15     7     8 1   
    16     8     9 1   
    17     8    26 1   
    18     8    27 1   
    19     9    12 1   
    20     9    28 1   
    21     9    29 1   
    22    10    11 2   
    23    10    45 1   
    24    12    13 1   
    25    12    30 1   
    26    12    31 1   
    27    13    14 1   
    28    13    32 1   
    29    13    33 1   
    30    14    15 1   
    31    14    19 1   
    32    14    34 1   
    33    15    16 1   
    34    15    35 1   
    35    15    36 1   
    36    16    17 1   
    37    16    37 1   
    38    16    38 1   
    39    17    18 1   
    40    17    39 1   
    41    17    40 1   
    42    18    19 1   
    43    18    41 1   
    44    18    42 1   
    45    19    43 1   
    46    19    44 1   
    47    45    46 1   
@<TRIPOS>SUBSTRUCTURE
     1 HJA         1 TEMP              0 ****  ****    0 ROOT
