@<TRIPOS>MOLECULE
HJD
   28    28     1     0     0
SMALL
bcc


@<TRIPOS>ATOM
      1 N1           0.0000     0.0000     0.0000 na         1 HJD       0.257100
      2 C2           1.3690     0.0000     0.0000 cc         1 HJD      -0.466900
      3 N3           3.5470     1.4370    -2.7190 ns         1 HJD      -0.154900
      4 C4           2.2680     0.0000    -1.2090 c3         1 HJD       0.083900
      5 N4           6.2110     4.0370    -5.9210 nz         1 HJD       0.082400
      6 C5           2.6740     1.4370    -1.5430 c3         1 HJD       0.038000
      7 C6           4.0310     2.6000    -3.1990 c          1 HJD       0.565100
      8 C1           1.7580     0.0000     1.2900 cd         1 HJD       0.349200
      9 C3          -0.4000     0.0060     1.2900 cc         1 HJD       0.227400
     10 C7           4.9300     2.6000    -4.4090 c3         1 HJD      -0.113400
     11 C8           5.3350     4.0370    -4.7420 c3         1 HJD      -0.035200
     12 N2           0.6560    -0.0000     2.0550 nd         1 HJD      -0.606000
     13 O1           3.7420     3.6460    -2.6580 o          1 HJD      -0.632100
     14 H1          -0.5940     0.0030    -0.8060 hn         1 HJD       0.120700
     15 H2           3.7640     0.5760    -3.1810 hn         1 HJD       0.174500
     16 H3           3.1540    -0.5860    -1.0000 hc         1 HJD       0.018200
     17 H4           1.7400    -0.4310    -2.0510 hc         1 HJD       0.018200
     18 H5           5.7220     3.6390    -6.6990 hn         1 HJD       0.223467
     19 H6           6.4760     4.9770    -6.1400 hn         1 HJD       0.223467
     20 H8           1.7870     2.0230    -1.7520 h1         1 HJD       0.040700
     21 H9           3.2020     1.8680    -0.7010 h1         1 HJD       0.040700
     22 H10          2.7810    -0.0020     1.6460 h4         1 HJD       0.004100
     23 H11         -1.4280     0.0080     1.6320 h5         1 HJD       0.030100
     24 H12          4.4020     2.1690    -5.2510 hc         1 HJD       0.041700
     25 H13          5.8170     2.0140    -4.2000 hc         1 HJD       0.041700
     26 H14          5.8640     4.4680    -3.9000 hx         1 HJD       0.101700
     27 H15          4.4490     4.6230    -4.9500 hx         1 HJD       0.101700
     28 H43          7.0300     3.4950    -5.7290 hn         1 HJD       0.223467
@<TRIPOS>BOND
     1     1     2 1   
     2     1     9 1   
     3     1    14 1   
     4     2     4 1   
     5     2     8 2   
     6     3     6 1   
     7     3     7 1   
     8     3    15 1   
     9     4     6 1   
    10     4    16 1   
    11     4    17 1   
    12     5    11 1   
    13     5    18 1   
    14     5    19 1   
    15     5    28 1   
    16     6    20 1   
    17     6    21 1   
    18     7    10 1   
    19     7    13 2   
    20     8    12 1   
    21     8    22 1   
    22     9    12 2   
    23     9    23 1   
    24    10    11 1   
    25    10    24 1   
    26    10    25 1   
    27    11    26 1   
    28    11    27 1   
@<TRIPOS>SUBSTRUCTURE
     1 HJD         1 TEMP              0 ****  ****    0 ROOT
