@<TRIPOS>MOLECULE
molecule
   41    44     1     0     0
SMALL
bcc


@<TRIPOS>ATOM
      1 C13          0.0000     0.0000     0.0000 ca         1 HJG      -0.122500
      2 C18         -1.5550    -1.1350     4.0620 cc         1 HJG       0.315800
      3 C17         -1.3240     1.4280     4.1320 cx         1 HJG      -0.108400
      4 C16         -0.1210     0.8370     4.8700 cx         1 HJG      -0.108400
      5 C22         -4.2160    -4.6320     6.4280 c3         1 HJG      -0.118100
      6 C23         -3.8100    -5.5850     4.1540 c3         1 HJG      -0.118100
      7 C11          2.0760     0.0000     1.1980 ca         1 HJG      -0.122500
      8 C12          1.3840     0.0000     0.0000 ca         1 HJG       0.031400
      9 Cl1          2.2520     0.0000    -1.5030 cl         1 HJG      -0.107400
     10 C2          -1.9980    -4.3810     5.3450 cd         1 HJG      -0.037300
     11 C3          -0.7560    -4.7780     5.7310 cc         1 HJG      -0.094000
     12 C4           0.3370    -3.9110     5.5630 cc         1 HJG      -0.155000
     13 C5           0.1610    -2.6890     5.0180 cd         1 HJG      -0.077300
     14 N6          -1.0790    -2.2780     4.6250 na         1 HJG      -0.044200
     15 C7          -2.1670    -3.1030     4.7790 cd         1 HJG      -0.060300
     16 C8          -0.7450     0.0810     3.6940 cx         1 HJG      -0.091000
     17 C9           0.0010    -0.0060     2.3940 ca         1 HJG      -0.052300
     18 C10          1.3830    -0.0010     2.3950 ca         1 HJG      -0.106000
     19 C14         -0.6910    -0.0000     1.1980 ca         1 HJG      -0.106000
     20 N19         -2.8430    -1.2870     3.8900 nc         1 HJG      -0.337700
     21 N20         -3.2160    -2.4440     4.3150 nc         1 HJG      -0.108000
     22 O21         -2.7480    -6.5270     6.1100 oh         1 HJG      -0.613800
     23 H35         -0.5420     0.0020    -0.9380 ha         1 HJG       0.146500
     24 H40         -2.2670     1.3810     4.6630 hc         1 HJG       0.086200
     25 H39         -1.1070     2.2650     3.4800 hc         1 HJG       0.086200
     26 H37          0.8310     1.3130     4.6680 hc         1 HJG       0.086200
     27 H38         -0.3290     0.4290     5.8510 hc         1 HJG       0.086200
     28 H24         -4.6960    -3.8210     5.8930 hc         1 HJG       0.050533
     29 H25         -4.9580    -5.3680     6.7100 hc         1 HJG       0.050533
     30 H26         -3.7360    -4.2440     7.3180 hc         1 HJG       0.050533
     31 H29         -4.3240    -4.7000     3.8000 hc         1 HJG       0.050533
     32 H27         -3.0400    -5.8630     3.4440 hc         1 HJG       0.050533
     33 H28         -4.5190    -6.3990     4.2540 hc         1 HJG       0.050533
     34 H34          3.1590     0.0020     1.1990 ha         1 HJG       0.146500
     35 H30         -0.6100    -5.7580     6.1690 ha         1 HJG       0.170000
     36 H31          1.3270    -4.2260     5.8700 ha         1 HJG       0.153000
     37 H32          1.0110    -2.0290     4.8930 h4         1 HJG       0.165000
     38 H33          1.9240    -0.0010     3.3330 ha         1 HJG       0.144500
     39 H36         -1.7740    -0.0000     1.1980 ha         1 HJG       0.144500
     40 H41         -3.4890    -7.0980     6.2260 ho         1 HJG       0.412000
     41 C15         -3.1810    -5.2990     5.5190 c3         1 HJG       0.208100
@<TRIPOS>BOND
     1    22    41 1
     2     5    41 1
     3    41    10 1
     4    41     6 1
     5    11    10 2
     6    11    12 1
     7    10    15 1
     8    12    13 2
     9     9     8 1
    10    15    21 2
    11    15    14 1
    12    13    14 1
    13     7     8 ar
    14     7    18 ar
    15     8     1 ar
    16    21    20 1
    17    14     2 1
    18    18    17 ar
    19     1    19 ar
    20    20     2 2
    21     2    16 1
    22    17    19 ar
    23    17    16 1
    24    16     4 1
    25    16     3 1
    26     4     3 1
    27     1    23 1
    28     3    24 1
    29     3    25 1
    30     4    26 1
    31     4    27 1
    32     5    28 1
    33     5    29 1
    34     5    30 1
    35     6    31 1
    36     6    32 1
    37     6    33 1
    38     7    34 1
    39    11    35 1
    40    12    36 1
    41    13    37 1
    42    18    38 1
    43    19    39 1
    44    22    40 1
@<TRIPOS>SUBSTRUCTURE
     1 HJG         1 TEMP              0 ****  ****    0 ROOT
