@<TRIPOS>MOLECULE
molecule
   17    17     1     0     0
SMALL
bcc


@<TRIPOS>ATOM
      1 OAF          0.0000     0.0000     0.0000 o          1 HJP      -0.790300
      2 CAE          1.2150     0.0000     0.0000 c          1 HJP       0.890800
      3 OAJ          1.8890     0.0000     1.1670 o          1 HJP      -0.790300
      4 CAD          1.9520    -0.0050    -1.2760 cc         1 HJP       0.065900
      5 OAC          3.2970    -0.0050    -1.2700 os         1 HJP      -0.153200
      6 CAB          4.0230    -0.0100    -2.3900 cd         1 HJP       0.119900
      7 CAA          5.5260    -0.0100    -2.2880 c3         1 HJP      -0.045900
      8 CAG          3.4490    -0.0160    -3.6130 cc         1 HJP      -0.375200
      9 CAH          2.0370    -0.0170    -3.7120 c          1 HJP       0.546500
     10 OAK          1.4790    -0.0260    -4.7970 o          1 HJP      -0.617100
     11 CAI          1.2640    -0.0150    -2.4560 cd         1 HJP      -0.108100
     12 OAL         -0.0920    -0.0170    -2.4720 oh         1 HJP      -0.444100
     13 H2           5.9220     0.8700    -2.7790 hc         1 HJP       0.053033
     14 H3           5.8170    -0.0030    -1.2440 hc         1 HJP       0.053033
     15 H4           5.9210    -0.8980    -2.7660 hc         1 HJP       0.053033
     16 H5           4.0610    -0.0200    -4.5060 ha         1 HJP       0.142000
     17 H6          -0.4000    -0.7680    -2.9510 ho         1 HJP       0.399000
@<TRIPOS>BOND
     1    10     9 2
     2    12    11 1
     3     9    11 1
     4     9     8 1
     5    11     4 2
     6     8     6 2
     7     1     2 1
     8     4     2 1
     9     4     5 1
    10     2     3 1
    11     6     5 1
    12     6     7 1
    13     7    13 1
    14     7    14 1
    15     7    15 1
    16     8    16 1
    17    12    17 1
@<TRIPOS>SUBSTRUCTURE
     1 HJP         1 TEMP              0 ****  ****    0 ROOT
