@<TRIPOS>MOLECULE
molecule
   50    53     1     0     0
SMALL
bcc


@<TRIPOS>ATOM
      1 S1           0.0000     0.0000     0.0000 ss         1 HJZ      -0.090800
      2 C2           1.7580     0.0000     0.0000 cc         1 HJZ      -0.082100
      3 C3           2.2240     0.0000     1.2790 cd         1 HJZ      -0.119000
      4 C4           1.2460    -0.0020     2.2510 cd         1 HJZ      -0.113000
      5 C5          -0.0420    -0.0010     1.7570 cc         1 HJZ       0.033300
      6 C6           2.6060     0.0010    -1.2110 ca         1 HJZ       0.039000
      7 C7          -1.2190    -0.0030     2.5460 c          1 HJZ       0.883200
      8 C8           1.5520    -0.0020     3.7010 ca         1 HJZ       0.050000
      9 O9          -1.1410     0.0970     3.7570 o          1 HJZ      -0.816800
     10 O10         -2.4280    -0.1130     1.9550 o          1 HJZ      -0.816800
     11 C11          1.9770     1.1690     4.3270 ca         1 HJZ      -0.062300
     12 C12          2.1250    -0.0050     6.4090 ca         1 HJZ      -0.146000
     13 C13          1.6970    -1.1680     5.7950 ca         1 HJZ      -0.136000
     14 C14          2.2600     1.1620     5.6780 ca         1 HJZ      -0.133000
     15 C15          1.4110    -1.1730     4.4450 ca         1 HJZ      -0.080000
     16 C16          2.0190     0.0020    -2.4770 ca         1 HJZ      -0.134000
     17 C17          4.1940     0.0020    -3.4800 ca         1 HJZ      -0.157000
     18 C18          4.7820     0.0060    -2.2270 ca         1 HJZ      -0.127500
     19 C19          2.8160     0.0030    -3.6040 ca         1 HJZ      -0.127500
     20 C20          3.9970     0.0060    -1.0920 ca         1 HJZ      -0.134000
     21 C21          2.1270     2.4390     3.5310 c3         1 HJZ      -0.020400
     22 C22          1.2940     3.5480     4.1780 c3         1 HJZ      -0.071900
     23 C23          1.4450     4.8380     3.3700 c3         1 HJZ      -0.075900
     24 C24          2.9180     5.2540     3.3450 c3         1 HJZ      -0.074700
     25 C25          3.7500     4.1450     2.6970 c3         1 HJZ      -0.075900
     26 C26          3.5980     2.8560     3.5050 c3         1 HJZ      -0.071900
     27 C27          3.0700     6.5440     2.5360 c3         1 HJZ      -0.088100
     28 H3           3.2820    -0.0000     1.5150 ha         1 HJZ       0.131000
     29 H12          2.3480    -0.0060     7.4690 ha         1 HJZ       0.106000
     30 H13          1.5910    -2.0770     6.3740 ha         1 HJZ       0.112000
     31 H14          2.5930     2.0710     6.1650 ha         1 HJZ       0.113000
     32 H15          1.0760    -2.0850     3.9650 ha         1 HJZ       0.134000
     33 H16          0.9400     0.0030    -2.5750 ha         1 HJZ       0.136000
     34 H17          4.8150     0.0020    -4.3670 ha         1 HJZ       0.114000
     35 H18          5.8610     0.0080    -2.1370 ha         1 HJZ       0.118000
     36 H19          2.3610     0.0020    -4.5870 ha         1 HJZ       0.118000
     37 H20          4.4580     0.0100    -0.1120 ha         1 HJZ       0.136000
     38 H21          1.7820     2.2780     2.5160 hc         1 HJZ       0.077700
     39 H22          1.6410     3.7140     5.1910 hc         1 HJZ       0.044450
     40 H22A         0.2510     3.2530     4.1930 hc         1 HJZ       0.044450
     41 H23          0.8580     5.6230     3.8310 hc         1 HJZ       0.037700
     42 H23A         1.1020     4.6700     2.3560 hc         1 HJZ       0.037700
     43 H24          3.2630     5.4150     4.3590 hc         1 HJZ       0.042700
     44 H25          3.4010     3.9780     1.6850 hc         1 HJZ       0.037700
     45 H25A         4.7920     4.4400     2.6820 hc         1 HJZ       0.037700
     46 H26          4.1860     2.0710     3.0450 hc         1 HJZ       0.044450
     47 H26A         3.9420     3.0240     4.5190 hc         1 HJZ       0.044450
     48 H27          4.1120     6.8380     2.5190 hc         1 HJZ       0.027367
     49 H27A         2.7240     6.3780     1.5230 hc         1 HJZ       0.027367
     50 H27B         2.4810     7.3290     2.9950 hc         1 HJZ       0.027367
@<TRIPOS>BOND
     1     1     2 1
     2     1     5 1
     3     6     2 1
     4     2     3 2
     5     3     4 1
     6     3    28 1
     7     5     4 2
     8     4     8 1
     9     7     5 1
    10    20     6 ar
    11     6    16 ar
    12     9     7 1
    13     7    10 1
    14     8    11 ar
    15     8    15 ar
    16    21    11 1
    17    11    14 ar
    18    14    12 ar
    19    13    12 ar
    20    12    29 1
    21    15    13 ar
    22    13    30 1
    23    14    31 1
    24    15    32 1
    25    19    16 ar
    26    16    33 1
    27    18    17 ar
    28    17    19 ar
    29    17    34 1
    30    18    20 ar
    31    18    35 1
    32    19    36 1
    33    20    37 1
    34    22    21 1
    35    21    26 1
    36    21    38 1
    37    23    22 1
    38    22    39 1
    39    22    40 1
    40    23    24 1
    41    23    41 1
    42    23    42 1
    43    27    24 1
    44    24    25 1
    45    24    43 1
    46    25    26 1
    47    25    44 1
    48    25    45 1
    49    26    46 1
    50    26    47 1
    51    27    48 1
    52    27    49 1
    53    27    50 1
@<TRIPOS>SUBSTRUCTURE
     1 HJZ         1 TEMP              0 ****  ****    0 ROOT
