@<TRIPOS>MOLECULE
HJZ
   50    53     1     0     0
SMALL
bcc


@<TRIPOS>ATOM
      1 S1          0.1780   -0.6240    0.0840 ss        1 HJZ      0.028200
      2 C2          1.7820   -0.0940    0.0790 cc        1 HJZ     -0.152100
      3 C3          2.2050    0.1590    1.3740 cd        1 HJZ     -0.114000
      4 C4          1.1830   -0.0930    2.3450 cd        1 HJZ     -0.120000
      5 C5          0.0170   -0.5500    1.7420 cc        1 HJZ     -0.063700
      6 C6          2.5590    0.0560   -1.1220 ca        1 HJZ      0.052000
      7 C7         -1.2780   -0.9750    2.4180 c         1 HJZ      0.931200
      8 C8          1.4130    0.0600    3.7730 ca        1 HJZ      0.026000
      9 O9         -1.2800   -2.0920    3.0030 o         1 HJZ     -0.805300
     10 O10        -2.2660   -0.2010    2.3230 o         1 HJZ     -0.805300
     11 C11         1.9530    1.2290    4.3430 ca        1 HJZ     -0.074300
     12 C12         1.9510    0.1580    6.5280 ca        1 HJZ     -0.150000
     13 C13         1.3660   -0.9800    5.9720 ca        1 HJZ     -0.142000
     14 C14         2.2300    1.2530    5.7180 ca        1 HJZ     -0.146000
     15 C15         1.0960   -1.0270    4.6090 ca        1 HJZ     -0.102000
     16 C16         1.9270    0.0930   -2.3790 ca        1 HJZ     -0.142500
     17 C17         4.0610    0.3490   -3.4830 ca        1 HJZ     -0.161000
     18 C18         4.7000    0.3120   -2.2450 ca        1 HJZ     -0.127500
     19 C19         2.6720    0.2370   -3.5440 ca        1 HJZ     -0.127500
     20 C20         3.9600    0.1660   -1.0740 ca        1 HJZ     -0.142500
     21 C21         2.1990    2.4650    3.5350 c3        1 HJZ     -0.022400
     22 C22         1.3750    3.6350    4.0670 c3        1 HJZ     -0.069900
     23 C23         1.6220    4.8880    3.2540 c3        1 HJZ     -0.073400
     24 C24         3.1000    5.2530    3.2330 c3        1 HJZ     -0.066700
     25 C25         3.9230    4.0860    2.7070 c3        1 HJZ     -0.073400
     26 C26         3.6800    2.8300    3.5170 c3        1 HJZ     -0.069900
     27 C27         3.3320    6.4910    2.3940 c3        1 HJZ     -0.088100
     28 H3          3.2010    0.5120    1.6500 ha        1 HJZ      0.137000
     29 H12         2.1770    0.1960    7.6020 ha        1 HJZ      0.109000
     30 H13         1.1080   -1.8370    6.6100 ha        1 HJZ      0.120000
     31 H14         2.6670    2.1590    6.1640 ha        1 HJZ      0.112000
     32 H15         0.5850   -1.9040    4.1640 ha        1 HJZ      0.193000
     33 H16         0.8300    0.0080   -2.4320 ha        1 HJZ      0.134500
     34 H17         4.6470    0.4640   -4.4050 ha        1 HJZ      0.116000
     35 H18         5.7940    0.3980   -2.1900 ha        1 HJZ      0.118000
     36 H19         2.1610    0.2640   -4.5180 ha        1 HJZ      0.118000
     37 H20         4.4730    0.1300   -0.1020 ha        1 HJZ      0.134500
     38 H21         1.8710    2.2850    2.4700 hc        1 HJZ      0.077700
     39 H22         1.6350    3.8260    5.1410 hc        1 HJZ      0.041950
     40 H22A        0.2870    3.3650    4.0230 hc        1 HJZ      0.041950
     41 H23         1.2640    4.7300    2.2030 hc        1 HJZ      0.035950
     42 H23A        1.0350    5.7380    3.6870 hc        1 HJZ      0.035950
     43 H24         3.4260    5.4680    4.2900 hc        1 HJZ      0.039700
     44 H25         5.0120    4.3520    2.7440 hc        1 HJZ      0.035950
     45 H25A        3.6570    3.8990    1.6340 hc        1 HJZ      0.035950
     46 H26         4.0440    2.9810    4.5670 hc        1 HJZ      0.041950
     47 H26A        4.2640    1.9810    3.0750 hc        1 HJZ      0.041950
     48 H27         4.4140    6.7670    2.4000 hc        1 HJZ      0.027367
     49 H27A        2.7430    7.3490    2.7980 hc        1 HJZ      0.027367
     50 H27B        3.0190    6.3130    1.3370 hc        1 HJZ      0.027367
@<TRIPOS>BOND
     1    1    2 1   
     2    1    5 1   
     3    2    3 2   
     4    2    6 1   
     5    3    4 1   
     6    3   28 1   
     7    4    5 2   
     8    4    8 1   
     9    5    7 1   
    10    6   16 ar  
    11    6   20 ar  
    12    7    9 1   
    13    7   10 1   
    14    8   11 ar  
    15    8   15 ar  
    16   11   14 ar  
    17   11   21 1   
    18   12   13 ar  
    19   12   14 ar  
    20   12   29 1   
    21   13   15 ar  
    22   13   30 1   
    23   14   31 1   
    24   15   32 1   
    25   16   19 ar  
    26   16   33 1   
    27   17   18 ar  
    28   17   19 ar  
    29   17   34 1   
    30   18   20 ar  
    31   18   35 1   
    32   19   36 1   
    33   20   37 1   
    34   21   22 1   
    35   21   26 1   
    36   21   38 1   
    37   22   23 1   
    38   22   39 1   
    39   22   40 1   
    40   23   24 1   
    41   23   41 1   
    42   23   42 1   
    43   24   25 1   
    44   24   27 1   
    45   24   43 1   
    46   25   26 1   
    47   25   44 1   
    48   25   45 1   
    49   26   46 1   
    50   26   47 1   
    51   27   48 1   
    52   27   49 1   
    53   27   50 1   
@<TRIPOS>SUBSTRUCTURE
     1 HJZ         1 TEMP              0 ****  ****    0 ROOT
