@<TRIPOS>MOLECULE
molecule
   62    66     1     0     0
SMALL
bcc


@<TRIPOS>ATOM
      1 O6           0.0000     0.0000     0.0000 o          1 HK0      -0.635500
      2 C22          1.2160     0.0000     0.0000 c          1 HK0       0.710100
      3 C10          1.8820     0.0000     1.3060 ca         1 HK0      -0.164600
      4 C11          1.3510    -0.7580     2.3570 ca         1 HK0      -0.065000
      5 C12          1.9400    -0.7260     3.5990 ca         1 HK0      -0.126000
      6 C13          3.0690     0.0650     3.8230 cp         1 HK0      -0.035000
      7 C15          3.6840     0.1130     5.1710 cp         1 HK0       0.048000
      8 C21          4.8080     0.9080     5.3990 ca         1 HK0      -0.170000
      9 C20          5.3790     0.9510     6.6540 ca         1 HK0      -0.033000
     10 C19          4.8400     0.2100     7.6900 ca         1 HK0      -0.194200
     11 N3           5.4560     0.2620     9.0340 no         1 HK0       0.301200
     12 O5           4.9820    -0.3910     9.9470 o          1 HK0      -0.203000
     13 O4           6.4380     0.9570     9.2270 o          1 HK0      -0.203000
     14 C17          3.7210    -0.5830     7.4710 ca         1 HK0       0.202100
     15 O3           3.1950    -1.3100     8.4920 os         1 HK0      -0.285900
     16 C18          2.0430    -2.1040     8.1960 c3         1 HK0       0.121700
     17 C16          3.1390    -0.6290     6.2150 ca         1 HK0      -0.230000
     18 C14          3.6170     0.8080     2.7810 ca         1 HK0      -0.088000
     19 C9           3.0420     0.7610     1.5200 ca         1 HK0       0.138600
     20 N2           3.6340     1.4390     0.4620 na         1 HK0      -0.607000
     21 N4           1.8180    -0.0050    -1.1790 ns         1 HK0      -0.460100
     22 C23          3.1900    -0.0350    -1.4230 ca         1 HK0       0.062600
     23 C8           4.0770     0.7070    -0.6510 ca         1 HK0       0.037600
     24 C24          3.6740    -0.8160    -2.4680 ca         1 HK0      -0.194000
     25 C25          5.0250    -0.8340    -2.7600 ca         1 HK0      -0.063000
     26 C26          5.9060    -0.0710    -2.0160 ca         1 HK0      -0.243000
     27 C7           5.4360     0.7040    -0.9580 ca         1 HK0       0.192100
     28 O2           6.3040     1.4560    -0.2290 os         1 HK0      -0.284900
     29 C6           7.6830     1.4020    -0.6040 c3         1 HK0       0.134400
     30 C5           8.4990     2.3050     0.3230 c3         1 HK0       0.164800
     31 N1           8.4480     1.7740     1.6920 n3         1 HK0      -0.719600
     32 C2           9.1370     0.4790     1.7820 c3         1 HK0       0.120300
     33 C1           9.0080    -0.0640     3.2070 c3         1 HK0       0.140900
     34 C3           9.0180     2.7340     2.6490 c3         1 HK0       0.120300
     35 C4           8.8900     2.1680     4.0660 c3         1 HK0       0.140900
     36 O1           9.5370     0.8950     4.1270 os         1 HK0      -0.421600
     37 H21          0.4760    -1.3730     2.1900 ha         1 HK0       0.154000
     38 H22          1.5270    -1.3180     4.4070 ha         1 HK0       0.136000
     39 H32          5.2330     1.4900     4.5900 ha         1 HK0       0.156000
     40 H31          6.2520     1.5690     6.8300 ha         1 HK0       0.171000
     41 H29          1.7290    -2.6310     9.0890 h1         1 HK0       0.048367
     42 H30          1.2410    -1.4630     7.8530 h1         1 HK0       0.048367
     43 H28          2.2890    -2.8210     7.4220 h1         1 HK0       0.048367
     44 H27          2.2660    -1.2470     6.0440 ha         1 HK0       0.154000
     45 H26          4.4920     1.4220     2.9540 ha         1 HK0       0.162000
     46 H3           3.0300     2.1760     0.1580 hn         1 HK0       0.392800
     47 H33          1.2220     0.0150    -1.9840 hn         1 HK0       0.340500
     48 H36          2.9880    -1.4160    -3.0540 ha         1 HK0       0.140000
     49 H37          5.3920    -1.4360    -3.5820 ha         1 HK0       0.138000
     50 H40          6.9640    -0.0860    -2.2480 ha         1 HK0       0.141000
     51 H15          8.0400     0.3830    -0.5230 h1         1 HK0       0.038200
     52 H14          7.7920     1.7420    -1.6270 h1         1 HK0       0.038200
     53 H12          9.5280     2.3340    -0.0150 h1         1 HK0       0.050700
     54 H13          8.0850     3.3060     0.3080 h1         1 HK0       0.050700
     55 H6          10.1840     0.6090     1.5390 h1         1 HK0       0.043200
     56 H7           8.6840    -0.2190     1.0880 h1         1 HK0       0.043200
     57 H4           7.9630    -0.2410     3.4330 h1         1 HK0       0.053950
     58 H5           9.5640    -0.9900     3.2920 h1         1 HK0       0.053950
     59 H9          10.0640     2.8970     2.4190 h1         1 HK0       0.043200
     60 H8           8.4780     3.6710     2.5850 h1         1 HK0       0.043200
     61 H10          7.8420     2.0520     4.3150 h1         1 HK0       0.053950
     62 H11          9.3600     2.8450     4.7690 h1         1 HK0       0.053950
@<TRIPOS>BOND
     1    25    24 ar
     2    25    26 ar
     3    24    22 ar
     4     1     2 2
     5    26    27 ar
     6    22    21 1
     7    22    23 ar
     8    21     2 1
     9     2     3 1
    10     4     3 ar
    11     4     5 ar
    12     3    19 ar
    13    27    23 ar
    14    27    28 1
    15    23    20 1
    16     5     6 ar
    17    19    20 1
    18    19    18 ar
    19    28    29 1
    20    30    29 1
    21    30    31 1
    22     6    18 ar
    23     6     7 1
    24    33    36 1
    25    33    32 1
    26     7    17 ar
    27     7     8 ar
    28    36    35 1
    29    32    31 1
    30    35    34 1
    31    17    14 ar
    32     8     9 ar
    33    31    34 1
    34    16    15 1
    35    14    10 ar
    36    14    15 1
    37     9    10 ar
    38    10    11 1
    39    12    11 1
    40    11    13 1
    41     4    37 1
    42     5    38 1
    43     8    39 1
    44     9    40 1
    45    16    41 1
    46    16    42 1
    47    16    43 1
    48    17    44 1
    49    18    45 1
    50    20    46 1
    51    21    47 1
    52    24    48 1
    53    25    49 1
    54    26    50 1
    55    29    51 1
    56    29    52 1
    57    30    53 1
    58    30    54 1
    59    32    55 1
    60    32    56 1
    61    33    57 1
    62    33    58 1
    63    34    59 1
    64    34    60 1
    65    35    61 1
    66    35    62 1
@<TRIPOS>SUBSTRUCTURE
     1 HK0         1 TEMP              0 ****  ****    0 ROOT
