@<TRIPOS>MOLECULE
molecule
   39    42     1     0     0
SMALL
bcc


@<TRIPOS>ATOM
      1 O1           0.0000     0.0000     0.0000 oh         1 HK1      -0.521100
      2 C1           1.3580     0.0000     0.0000 ca         1 HK1       0.113100
      3 C6           2.0500     0.0000     1.2040 ca         1 HK1      -0.153000
      4 C5           3.4290     0.0010     1.2080 ca         1 HK1      -0.098000
      5 C4           4.1290    -0.0000     0.0020 ca         1 HK1      -0.039000
      6 C3           3.4300    -0.0010    -1.2060 ca         1 HK1      -0.098000
      7 C2           2.0510    -0.0060    -1.2020 ca         1 HK1      -0.153000
      8 C7           5.6080     0.0020     0.0020 cc         1 HK1      -0.003300
      9 C9           6.4150    -0.7750    -0.7740 cd         1 HK1      -0.301600
     10 C10          6.4360    -1.8420    -1.8410 c3         1 HK1       0.059200
     11 C11          7.8930    -2.1230    -2.1230 ca         1 HK1      -0.076300
     12 C18          8.6520    -1.2990    -1.2990 ca         1 HK1      -0.113500
     13 C8           7.7490    -0.4650    -0.4640 cd         1 HK1       0.387800
     14 N2           7.7450     0.4690     0.4690 nc         1 HK1      -0.484800
     15 N1           6.4140     0.7840     0.7760 na         1 HK1      -0.038600
     16 C17         10.0460    -1.3590    -1.3590 ca         1 HK1      -0.158000
     17 C15         10.6610    -2.2340    -2.2350 ca         1 HK1       0.111100
     18 O3          12.0190    -2.2930    -2.2930 os         1 HK1      -0.313900
     19 C16         12.7440    -1.4230    -1.4230 c3         1 HK1       0.125700
     20 C13          9.8930    -3.0560    -3.0570 ca         1 HK1       0.128100
     21 C12          8.5100    -2.9960    -2.9960 ca         1 HK1      -0.180000
     22 O2          10.5000    -3.9160    -3.9170 os         1 HK1      -0.309900
     23 C14          9.6500    -4.7280    -4.7300 c3         1 HK1       0.126700
     24 H2          -0.3140     0.8890    -0.0030 ho         1 HK1       0.421000
     25 H6           1.5060     0.0010     2.1410 ha         1 HK1       0.144500
     26 H5           3.9680     0.0010     2.1480 ha         1 HK1       0.140500
     27 H4           3.9700    -0.0030    -2.1460 ha         1 HK1       0.140500
     28 H3           1.5080    -0.0060    -2.1390 ha         1 HK1       0.144500
     29 H8           5.9470    -1.4800    -2.7370 hc         1 HK1       0.062200
     30 H7           5.9480    -2.7390    -1.4790 hc         1 HK1       0.062200
     31 H1           6.1100     1.4920     1.4140 hn         1 HK1       0.334700
     32 H10         10.6440    -0.7450    -0.6970 ha         1 HK1       0.151000
     33 H161        12.4940    -1.6500    -0.3940 h1         1 HK1       0.041700
     34 H162        13.8080    -1.5630    -1.5760 h1         1 HK1       0.041700
     35 H163        12.4810    -0.3940    -1.6400 h1         1 HK1       0.041700
     36 H9           7.9120    -3.6350    -3.6350 ha         1 HK1       0.142000
     37 H143         9.0250    -4.0930    -5.3450 h1         1 HK1       0.041033
     38 H141         9.0250    -5.3440    -4.0950 h1         1 HK1       0.041033
     39 H142        10.2560    -5.3630    -5.3650 h1         1 HK1       0.041033
@<TRIPOS>BOND
     1    19    18 1
     2    18    17 1
     3    16    17 ar
     4    16    12 ar
     5    14    15 1
     6    14    13 2
     7    17    20 ar
     8    15     8 1
     9    13    12 1
    10    13     9 1
    11    12    11 ar
    12    20    22 1
    13    20    21 ar
    14    22    23 1
    15     8     9 2
    16     8     5 1
    17     9    10 1
    18    11    21 ar
    19    11    10 1
    20     6     5 ar
    21     6     7 ar
    22     5     4 ar
    23     7     2 ar
    24     4     3 ar
    25     2     3 ar
    26     2     1 1
    27     1    24 1
    28     3    25 1
    29     4    26 1
    30     6    27 1
    31     7    28 1
    32    10    29 1
    33    10    30 1
    34    15    31 1
    35    16    32 1
    36    19    33 1
    37    19    34 1
    38    19    35 1
    39    21    36 1
    40    23    37 1
    41    23    38 1
    42    23    39 1
@<TRIPOS>SUBSTRUCTURE
     1 HK1         1 TEMP              0 ****  ****    0 ROOT
