@<TRIPOS>MOLECULE
HK3
   47    51     1     0     0
SMALL
bcc


@<TRIPOS>ATOM
      1 O1           0.0000     0.0000     0.0000 oh         1 HK3      -0.500100
      2 C1           1.3580     0.0000     0.0000 ca         1 HK3       0.128100
      3 C6           2.0520     0.0000     1.2040 ca         1 HK3      -0.136500
      4 C5           3.4300    -0.0010     1.2090 ca         1 HK3      -0.075500
      5 C4           4.1290    -0.0020     0.0010 cp         1 HK3      -0.056000
      6 C3           3.4300    -0.0020    -1.2070 ca         1 HK3      -0.075500
      7 C2           2.0520    -0.0070    -1.2030 ca         1 HK3      -0.136500
      8 C7           5.6100    -0.0030     0.0010 cp         1 HK3      -0.005000
      9 C12          6.3080    -0.0040    -1.2080 ca         1 HK3      -0.113500
     10 C11          7.6740    -0.0040    -1.2100 ca         1 HK3      -0.062000
     11 C10          8.3740    -0.0030     0.0020 ca         1 HK3      -0.148500
     12 C9           7.6730    -0.0010     1.2140 ca         1 HK3      -0.062000
     13 C8           6.3080     0.0040     1.2120 ca         1 HK3      -0.113500
     14 C13          9.8480    -0.0080     0.0020 cc         1 HK3       0.494800
     15 C15         10.7390    -0.0110    -1.1660 cc         1 HK3      -0.410600
     16 C16         10.8530    -0.0090    -2.5500 cd         1 HK3       0.187800
     17 C17         12.2180    -0.0150    -2.9180 ca         1 HK3      -0.190800
     18 C24         12.9940    -0.0190    -1.7330 ca         1 HK3      -0.032500
     19 C14         12.0430    -0.0160    -0.5970 cc         1 HK3       0.292800
     20 N2          11.8880    -0.0170     0.7090 nd         1 HK3      -0.203000
     21 N1          10.6560    -0.0070     1.0620 nd         1 HK3      -0.368000
     22 C23         14.3740    -0.0250    -1.8120 ca         1 HK3      -0.169000
     23 C21         15.0010    -0.0270    -3.0580 ca         1 HK3       0.170100
     24 O3          16.3550    -0.0330    -3.1320 os         1 HK3      -0.285900
     25 C22         17.0720    -0.0370    -1.8960 c3         1 HK3       0.238700
     26 C19         14.2410    -0.0230    -4.2280 ca         1 HK3       0.087100
     27 C18         12.8610    -0.0160    -4.1660 ca         1 HK3      -0.089000
     28 O2          14.8630    -0.0260    -5.4380 os         1 HK3      -0.290900
     29 C20         14.0280    -0.0220    -6.5970 c3         1 HK3       0.241700
     30 H1          -0.3140     0.8890    -0.0030 ho         1 HK3       0.403000
     31 H2           1.5080     0.0010     2.1410 ha         1 HK3       0.114500
     32 H3           3.9700    -0.0010     2.1480 ha         1 HK3       0.113000
     33 H4           3.9700    -0.0050    -2.1460 ha         1 HK3       0.113000
     34 H5           1.5090    -0.0070    -2.1410 ha         1 HK3       0.114500
     35 H6           5.7650    -0.0040    -2.1460 ha         1 HK3       0.114500
     36 H7           8.2150    -0.0050    -2.1490 ha         1 HK3       0.115500
     37 H8           8.2130     0.0030     2.1530 ha         1 HK3       0.115500
     38 H9           5.7650     0.0060     2.1490 ha         1 HK3       0.114500
     39 H10         10.1320     0.5300    -3.1530 ha         1 HK3       0.107000
     40 H11         14.9680    -0.0580    -0.9070 ha         1 HK3       0.138000
     41 H222        16.8100     0.8440    -1.3240 h1         1 HK3       0.002367
     42 H223        16.8140    -0.9250    -1.3310 h1         1 HK3       0.002367
     43 H221        18.1370    -0.0350    -2.0970 h1         1 HK3       0.002367
     44 H12         12.2770    -0.0130    -5.0780 ha         1 HK3       0.122000
     45 H203        13.3970    -0.9030    -6.5910 h1         1 HK3      -0.001967
     46 H201        14.6450    -0.0250    -7.4870 h1         1 HK3      -0.001967
     47 H202        13.4070     0.8660    -6.5910 h1         1 HK3      -0.001967
@<TRIPOS>BOND
     1     1     2 1   
     2     1    30 1   
     3     2     3 ar  
     4     2     7 ar  
     5     3     4 ar  
     6     3    31 1   
     7     4     5 ar  
     8     4    32 1   
     9     5     6 ar  
    10     5     8 1   
    11     6     7 ar  
    12     6    33 1   
    13     7    34 1   
    14     8     9 ar  
    15     8    13 ar  
    16     9    10 ar  
    17     9    35 1   
    18    10    11 ar  
    19    10    36 1   
    20    11    12 ar  
    21    11    14 1   
    22    12    13 ar  
    23    12    37 1   
    24    13    38 1   
    25    14    15 1   
    26    14    21 2   
    27    15    16 2   
    28    15    19 1   
    29    16    17 1   
    30    16    39 1   
    31    17    18 ar  
    32    17    27 ar  
    33    18    19 1   
    34    18    22 ar  
    35    19    20 2   
    36    20    21 1   
    37    22    23 ar  
    38    22    40 1   
    39    23    24 1   
    40    23    26 ar  
    41    24    25 1   
    42    25    41 1   
    43    25    42 1   
    44    25    43 1   
    45    26    27 ar  
    46    26    28 1   
    47    27    44 1   
    48    28    29 1   
    49    29    45 1   
    50    29    46 1   
    51    29    47 1   
@<TRIPOS>SUBSTRUCTURE
     1 HK3         1 TEMP              0 ****  ****    0 ROOT
