@<TRIPOS>MOLECULE
molecule
   47    51     1     0     0
SMALL
bcc


@<TRIPOS>ATOM
      1 O1           0.0000     0.0000     0.0000 oh         1 HK3      -0.521100
      2 C1           1.3580     0.0000     0.0000 ca         1 HK3       0.110100
      3 C6           2.0520     0.0000     1.2040 ca         1 HK3      -0.151500
      4 C5           3.4300    -0.0010     1.2090 ca         1 HK3      -0.103000
      5 C4           4.1290    -0.0020     0.0010 cp         1 HK3      -0.051000
      6 C3           3.4300    -0.0020    -1.2070 ca         1 HK3      -0.103000
      7 C2           2.0520    -0.0070    -1.2030 ca         1 HK3      -0.151500
      8 C7           5.6100    -0.0030     0.0010 cp         1 HK3      -0.013000
      9 C12          6.3080    -0.0040    -1.2080 ca         1 HK3      -0.131000
     10 C11          7.6740    -0.0040    -1.2100 ca         1 HK3      -0.088000
     11 C10          8.3740    -0.0030     0.0020 ca         1 HK3      -0.138500
     12 C9           7.6730    -0.0010     1.2140 ca         1 HK3      -0.088000
     13 C8           6.3080     0.0040     1.2120 ca         1 HK3      -0.131000
     14 C13          9.8480    -0.0080     0.0020 cc         1 HK3       0.467800
     15 C15         10.7390    -0.0110    -1.1660 cd         1 HK3      -0.381600
     16 C16         10.8530    -0.0090    -2.5500 cc         1 HK3       0.115800
     17 C17         12.2180    -0.0150    -2.9180 ca         1 HK3      -0.160800
     18 C24         12.9940    -0.0190    -1.7330 ca         1 HK3      -0.057500
     19 C14         12.0430    -0.0160    -0.5970 cd         1 HK3       0.336800
     20 N2          11.8880    -0.0170     0.7090 nc         1 HK3      -0.269000
     21 N1          10.6560    -0.0070     1.0620 nc         1 HK3      -0.355000
     22 C23         14.3740    -0.0250    -1.8120 ca         1 HK3      -0.173000
     23 C21         15.0010    -0.0270    -3.0580 ca         1 HK3       0.160100
     24 O3          16.3550    -0.0330    -3.1320 os         1 HK3      -0.301900
     25 C22         17.0720    -0.0370    -1.8960 c3         1 HK3       0.121700
     26 C19         14.2410    -0.0230    -4.2280 ca         1 HK3       0.094100
     27 C18         12.8610    -0.0160    -4.1660 ca         1 HK3      -0.119000
     28 O2          14.8630    -0.0260    -5.4380 os         1 HK3      -0.309900
     29 C20         14.0280    -0.0220    -6.5970 c3         1 HK3       0.125700
     30 H1          -0.3140     0.8890    -0.0030 ho         1 HK3       0.420000
     31 H2           1.5080     0.0010     2.1410 ha         1 HK3       0.142500
     32 H3           3.9700    -0.0010     2.1480 ha         1 HK3       0.137500
     33 H4           3.9700    -0.0050    -2.1460 ha         1 HK3       0.137500
     34 H5           1.5090    -0.0070    -2.1410 ha         1 HK3       0.142500
     35 H6           5.7650    -0.0040    -2.1460 ha         1 HK3       0.137000
     36 H7           8.2150    -0.0050    -2.1490 ha         1 HK3       0.143500
     37 H8           8.2130     0.0030     2.1530 ha         1 HK3       0.143500
     38 H9           5.7650     0.0060     2.1490 ha         1 HK3       0.137000
     39 H10         10.1320     0.5300    -3.1530 ha         1 HK3       0.148000
     40 H11         14.9680    -0.0580    -0.9070 ha         1 HK3       0.161000
     41 H222        16.8100     0.8440    -1.3240 h1         1 HK3       0.048033
     42 H223        16.8140    -0.9250    -1.3310 h1         1 HK3       0.048033
     43 H221        18.1370    -0.0350    -2.0970 h1         1 HK3       0.048033
     44 H12         12.2770    -0.0130    -5.0780 ha         1 HK3       0.147000
     45 H203        13.3970    -0.9030    -6.5910 h1         1 HK3       0.042367
     46 H201        14.6450    -0.0250    -7.4870 h1         1 HK3       0.042367
     47 H202        13.4070     0.8660    -6.5910 h1         1 HK3       0.042367
@<TRIPOS>BOND
     1    25    24 1
     2    24    23 1
     3    20    21 1
     4    20    19 2
     5    22    23 ar
     6    22    18 ar
     7    23    26 ar
     8    21    14 2
     9    19    18 1
    10    19    15 1
    11    18    17 ar
    12    26    28 1
    13    26    27 ar
    14    14    15 1
    15    14    11 1
    16    28    29 1
    17    15    16 2
    18    17    27 ar
    19    17    16 1
    20    11    12 ar
    21    11    10 ar
    22    12    13 ar
    23    10     9 ar
    24    13     8 ar
    25     9     8 ar
    26     8     5 1
    27     5     4 ar
    28     5     6 ar
    29     4     3 ar
    30     6     7 ar
    31     3     2 ar
    32     7     2 ar
    33     2     1 1
    34     1    30 1
    35     3    31 1
    36     4    32 1
    37     6    33 1
    38     7    34 1
    39     9    35 1
    40    10    36 1
    41    12    37 1
    42    13    38 1
    43    16    39 1
    44    22    40 1
    45    25    41 1
    46    25    42 1
    47    25    43 1
    48    27    44 1
    49    29    45 1
    50    29    46 1
    51    29    47 1
@<TRIPOS>SUBSTRUCTURE
     1 HK3         1 TEMP              0 ****  ****    0 ROOT
