@<TRIPOS>MOLECULE
molecule
   45    48     1     0     0
SMALL
bcc


@<TRIPOS>ATOM
      1 O1           0.0000     0.0000     0.0000 oh         1 HK4      -0.476100
      2 C1           1.3590     0.0000     0.0000 ca         1 HK4       0.064100
      3 C6           2.0550     0.0000     1.2080 ca         1 HK4       0.107100
      4 O2           1.3730     0.0000     2.3850 os         1 HK4      -0.320900
      5 C7           2.1500     0.0000     3.5850 c3         1 HK4       0.120700
      6 C5           3.4360    -0.0010     1.2110 ca         1 HK4      -0.192000
      7 C4           4.1350    -0.0010    -0.0020 ca         1 HK4       0.057000
      8 C3           3.4300    -0.0010    -1.2090 ca         1 HK4      -0.136000
      9 C2           2.0510    -0.0060    -1.2020 ca         1 HK4      -0.109000
     10 C8           5.5660     0.0040    -0.0060 cg         1 HK4      -0.141000
     11 C9           6.7400     0.0250     0.0030 cg         1 HK4      -0.024000
     12 C10          8.3280    -0.3260    -0.2580 cc         1 HK4      -0.387300
     13 C12          9.3660    -0.3690     0.9530 cd         1 HK4      -0.107600
     14 C13          9.5740    -0.2430     2.1930 c3         1 HK4      -0.001800
     15 C14         11.0430    -0.4800     2.6030 ca         1 HK4      -0.026300
     16 C21         11.5100    -0.7590     1.2240 ca         1 HK4      -0.080500
     17 C11         10.4370    -0.6950     0.1180 cd         1 HK4       0.231800
     18 N2          10.0540    -0.7810    -1.0850 nc         1 HK4      -0.458800
     19 N1           9.1270    -0.6270    -1.3120 na         1 HK4       0.430400
     20 C20         12.9010    -1.0400     1.1970 ca         1 HK4      -0.149000
     21 C18         13.6740    -0.9940     2.6740 ca         1 HK4       0.113100
     22 O4          15.2010    -1.3410     2.5320 os         1 HK4      -0.265900
     23 C19         15.4510    -1.9560     1.5490 c3         1 HK4       0.152700
     24 C16         12.8310    -1.0790     3.9890 ca         1 HK4       0.032100
     25 C15         11.5110    -0.8690     3.6280 ca         1 HK4      -0.116000
     26 O3          13.6630    -0.6620     5.1270 os         1 HK4      -0.241900
     27 C17         13.1680    -0.7980     6.1460 c3         1 HK4       0.198700
     28 H2          -0.1040     0.8910     0.2900 ho         1 HK4       0.411000
     29 H73          2.7570     0.8690     3.8060 h1         1 HK4       0.044700
     30 H72          2.7800    -0.8540     3.3680 h1         1 HK4       0.044700
     31 H71          1.5830    -0.2650     4.4690 h1         1 HK4       0.044700
     32 H5           3.9900     0.1010     2.1360 ha         1 HK4       0.147000
     33 H4           4.0350     0.0590    -2.1060 ha         1 HK4       0.139000
     34 H3           1.5290     0.0770    -2.1470 ha         1 HK4       0.149000
     35 H6           8.8970     0.4510     2.6750 hc         1 HK4       0.085700
     36 H7           9.3040    -1.1490     2.7220 hc         1 HK4       0.085700
     37 H1           8.6150    -0.7270    -2.1650 hn         1 HK4       0.325700
     38 H9          13.4160    -1.0860     0.2450 ha         1 HK4       0.162000
     39 H191        14.9250    -2.7920     1.1040 h1         1 HK4      -0.009300
     40 H192        15.5210    -1.3370     0.6630 h1         1 HK4      -0.009300
     41 H193        16.4960    -2.1630     1.3500 h1         1 HK4      -0.009300
     42 H8          11.1870    -0.8080     4.6600 ha         1 HK4       0.139000
     43 H172        12.1560    -0.4110     6.1560 h1         1 HK4      -0.006967
     44 H171        13.0450    -1.8740     6.1790 h1         1 HK4      -0.006967
     45 H173        13.9370    -0.5450     6.8670 h1         1 HK4      -0.006967
@<TRIPOS>BOND
     1    23    22 1
     2    22    21 1
     3    18    19 1
     4    18    17 2
     5    20    21 ar
     6    20    16 ar
     7    21    24 ar
     8    19    12 1
     9    17    16 1
    10    17    13 1
    11    16    15 ar
    12    12    13 2
    13    12    11 1
    14    24    26 1
    15    24    25 ar
    16    13    14 1
    17    15    25 ar
    18    15    14 1
    19    26    27 1
    20    11    10 3
    21    10     7 1
    22     7     8 ar
    23     7     6 ar
    24     8     9 ar
    25     6     3 ar
    26     9     2 ar
    27     3     2 ar
    28     3     4 1
    29     2     1 1
    30     5     4 1
    31     1    28 1
    32     5    29 1
    33     5    30 1
    34     5    31 1
    35     6    32 1
    36     8    33 1
    37     9    34 1
    38    14    35 1
    39    14    36 1
    40    19    37 1
    41    20    38 1
    42    23    39 1
    43    23    40 1
    44    23    41 1
    45    25    42 1
    46    27    43 1
    47    27    44 1
    48    27    45 1
@<TRIPOS>SUBSTRUCTURE
     1 HK4         1 TEMP              0 ****  ****    0 ROOT
