@<TRIPOS>MOLECULE
HK4
   45    48     1     0     0
SMALL
bcc


@<TRIPOS>ATOM
      1 O1          0.0490    0.4030   -0.1080 oh        1 HK4     -0.491100
      2 C1          1.4060    0.2110   -0.0400 ca        1 HK4      0.126100
      3 C6          2.1080    0.1000    1.1840 ca        1 HK4      0.040100
      4 O2          1.3140    0.1990    2.3150 os        1 HK4     -0.347900
      5 C7          1.9910    0.1060    3.5640 c3        1 HK4      0.120700
      6 C5          3.4870   -0.0950    1.1900 ca        1 HK4     -0.136000
      7 C4          4.1800   -0.1800   -0.0310 ca        1 HK4      0.008000
      8 C3          3.4810   -0.0700   -1.2430 ca        1 HK4     -0.098000
      9 C2          2.1040    0.1250   -1.2520 ca        1 HK4     -0.142000
     10 C8          5.5720   -0.3770   -0.0290 cg        1 HK4     -0.065000
     11 C9          6.7600   -0.5440   -0.0280 ch        1 HK4     -0.103000
     12 C10         8.1380   -0.7420    0.0050 cd        1 HK4      0.042700
     13 C12         9.0100   -0.9650    1.0670 cc        1 HK4     -0.230600
     14 C13         9.1330   -1.1210    2.5360 c3        1 HK4      0.054200
     15 C14        10.6180   -1.3480    2.7220 ca        1 HK4     -0.083300
     16 C21        11.3170   -1.3290    1.4780 ca        1 HK4     -0.111500
     17 C11        10.3410   -1.0930    0.4330 cc        1 HK4      0.338800
     18 N2         10.2500   -0.9540   -0.9080 nd        1 HK4     -0.456800
     19 N1          8.9560   -0.7480   -1.1590 na        1 HK4     -0.030600
     20 C20        12.6890   -1.5170    1.4210 ca        1 HK4     -0.140000
     21 C18        13.3820   -1.7280    2.6210 ca        1 HK4      0.095100
     22 O4         14.7460   -1.9290    2.7080 os        1 HK4     -0.304900
     23 C19        15.4570   -1.9130    1.4760 c3        1 HK4      0.109700
     24 C16        12.6910   -1.7480    3.8600 ca        1 HK4      0.103100
     25 C15        11.3010   -1.5570    3.9080 ca        1 HK4     -0.165000
     26 O3         13.4850   -1.9650    4.9690 os        1 HK4     -0.302900
     27 C17        12.8120   -1.9930    6.2220 c3        1 HK4      0.110700
     28 H2         -0.2970    0.4450    0.7970 ho        1 HK4      0.440000
     29 H73         2.7370    0.9310    3.6690 h1        1 HK4      0.048033
     30 H72         2.4880   -0.8890    3.6680 h1        1 HK4      0.048033
     31 H71         1.1670    0.2190    4.3140 h1        1 HK4      0.048033
     32 H5          4.0410   -0.1830    2.1360 ha        1 HK4      0.148000
     33 H4          4.0260   -0.1380   -2.1960 ha        1 HK4      0.143000
     34 H3          1.5490    0.2120   -2.1970 ha        1 HK4      0.158000
     35 H6          8.7970   -0.2030    3.0830 hc        1 HK4      0.071200
     36 H7          8.5440   -1.9960    2.9130 hc        1 HK4      0.071200
     37 H1          8.6390   -0.6150   -2.0900 hn        1 HK4      0.324700
     38 H9         13.2130   -1.5000    0.4550 ha        1 HK4      0.154000
     39 H191       15.1010   -2.7300    0.8020 h1        1 HK4      0.044367
     40 H192       15.3570   -0.9200    0.9730 h1        1 HK4      0.044367
     41 H193       16.5170   -2.0920    1.7880 h1        1 HK4      0.044367
     42 H8         10.7630   -1.5720    4.8650 ha        1 HK4      0.142000
     43 H172       12.3180   -1.0130    6.4300 h1        1 HK4      0.043367
     44 H171       12.0650   -2.8230    6.2530 h1        1 HK4      0.043367
     45 H173       13.6390   -2.1800    6.9540 h1        1 HK4      0.043367
@<TRIPOS>BOND
     1    1    2 1   
     2    1   28 1   
     3    2    3 ar  
     4    2    9 ar  
     5    3    4 1   
     6    3    6 ar  
     7    4    5 1   
     8    5   29 1   
     9    5   30 1   
    10    5   31 1   
    11    6    7 ar  
    12    6   32 1   
    13    7    8 ar  
    14    7   10 1   
    15    8    9 ar  
    16    8   33 1   
    17    9   34 1   
    18   10   11 3   
    19   11   12 1   
    20   12   13 2   
    21   12   19 1   
    22   13   14 1   
    23   13   17 1   
    24   14   15 1   
    25   14   35 1   
    26   14   36 1   
    27   15   16 ar  
    28   15   25 ar  
    29   16   17 1   
    30   16   20 ar  
    31   17   18 2   
    32   18   19 1   
    33   19   37 1   
    34   20   21 ar  
    35   20   38 1   
    36   21   22 1   
    37   21   24 ar  
    38   22   23 1   
    39   23   39 1   
    40   23   40 1   
    41   23   41 1   
    42   24   25 ar  
    43   24   26 1   
    44   25   42 1   
    45   26   27 1   
    46   27   43 1   
    47   27   44 1   
    48   27   45 1   
@<TRIPOS>SUBSTRUCTURE
     1 HK4         1 TEMP              0 ****  ****    0 ROOT
