@<TRIPOS>MOLECULE
HK5
   45    50     1     0     0
SMALL
bcc


@<TRIPOS>ATOM
      1 N5          -1.2770    -0.0060    -2.2280 n1         1 HK5      -0.046000
      2 C22         -0.7160     0.0070    -1.2400 c1         1 HK5      -0.104000
      3 C19          0.0000     0.0000     0.0000 ca         1 HK5       0.036000
      4 C18          1.3990     0.0000     0.0000 ca         1 HK5      -0.067500
      5 C17          2.0840     0.0000     1.1880 ca         1 HK5      -0.091500
      6 C20         -0.6980    -0.0010     1.2120 ca         1 HK5      -0.067500
      7 C21         -0.0120    -0.0070     2.3980 ca         1 HK5      -0.091500
      8 C16          1.3850    -0.0020     2.3970 ca         1 HK5       0.003000
      9 C15          2.1250    -0.0020     3.6770 c2         1 HK5      -0.142000
     10 N4           3.2020     0.7760     3.9890 na         1 HK5       0.296000
     11 N3           3.5970     0.4640     5.2940 n2         1 HK5      -0.189000
     12 C14          2.7910    -0.4710     5.7650 c2         1 HK5      -0.028000
     13 C4           2.5200    -1.3060     6.9620 ca         1 HK5       0.049000
     14 C3           3.1620    -1.3690     8.1990 ca         1 HK5      -0.187000
     15 C13          1.8530    -0.7760     4.7660 c2         1 HK5      -0.239000
     16 C12          0.9400    -1.8430     5.3150 c3         1 HK5       0.065000
     17 C5           1.4260    -2.1310     6.7160 ca         1 HK5      -0.130000
     18 C6           0.9800    -3.0040     7.6860 ca         1 HK5      -0.038000
     19 C7           1.6160    -3.0650     8.9110 ca         1 HK5      -0.126000
     20 C2           2.7090    -2.2480     9.1680 ca         1 HK5       0.136000
     21 O            3.3340    -2.3110    10.3720 os         1 HK5      -0.180000
     22 C1           4.4520    -1.4420    10.5700 c3         1 HK5       0.031000
     23 C8           1.1250    -4.0200     9.9690 c3         1 HK5      -0.241000
     24 N1           0.2100    -3.3190    10.8730 nx         1 HK5       0.458000
     25 C11         -1.1290    -3.2090    10.7310 c2         1 HK5      -0.328000
     26 N2          -1.5990    -2.5140    11.7290 n2         1 HK5      -0.072000
     27 C10         -0.5890    -2.1580    12.5370 c2         1 HK5      -0.156000
     28 C9           0.5500    -2.6570    12.0210 c2         1 HK5      -0.343000
     29 H15          1.9400    -0.0360    -0.9370 ha         1 HK5       0.116500
     30 H14          3.1670     0.0000     1.1880 ha         1 HK5       0.117000
     31 H16         -1.7800    -0.0380     1.2130 ha         1 HK5       0.116500
     32 H17         -0.5530    -0.0080     3.3360 ha         1 HK5       0.117000
     33 H1           3.3990     1.6830     3.6150 hn         1 HK5       0.103000
     34 H5           4.0140    -0.7310     8.4000 ha         1 HK5       0.139000
     35 H13         -0.0810    -1.4820     5.3230 hc         1 HK5       0.065000
     36 H12          1.0140    -2.7360     4.7050 hc         1 HK5       0.065000
     37 H6           0.1280    -3.6440     7.4880 ha         1 HK5       0.103000
     38 H4           5.2150    -1.9590    11.1390 h1         1 HK5       0.044667
     39 H2           4.8550    -1.1470     9.6090 h1         1 HK5       0.044667
     40 H3           4.1320    -0.5600    11.1130 h1         1 HK5       0.044667
     41 H8           1.4370    -5.0270     9.7190 hx         1 HK5       0.174000
     42 H7           0.0440    -3.9790    10.0190 DU         1 HK5       0.076000
     43 H11         -1.7190    -3.6270     9.9240 hx         1 HK5       0.165000
     44 H10         -0.6760    -1.5760    13.4460 h4         1 HK5       0.140000
     45 H9           1.5500    -2.5580    12.4270 hx         1 HK5       0.163000
@<TRIPOS>BOND
     1     1     2 1   
     2     2     3 1   
     3     3     4 1   
     4     3     6 1   
     5     4     5 1   
     6     4    29 1   
     7     5     8 1   
     8     5    30 1   
     9     6     7 1   
    10     6    31 1   
    11     7     8 1   
    12     7    32 1   
    13     8     9 1   
    14     9    10 1   
    15     9    15 1   
    16    10    11 1   
    17    10    33 1   
    18    11    12 1   
    19    12    13 1   
    20    12    15 1   
    21    13    14 1   
    22    13    17 1   
    23    14    20 1   
    24    14    34 1   
    25    15    16 1   
    26    16    17 1   
    27    16    35 1   
    28    16    36 1   
    29    17    18 1   
    30    18    19 1   
    31    18    37 1   
    32    19    20 1   
    33    19    23 1   
    34    20    21 1   
    35    21    22 1   
    36    22    38 1   
    37    22    39 1   
    38    22    40 1   
    39    23    24 1   
    40    23    41 1   
    41    23    42 1   
    42    24    25 1   
    43    24    28 1   
    44    24    42 1   
    45    25    26 1   
    46    25    43 1   
    47    26    27 1   
    48    27    28 1   
    49    27    44 1   
    50    28    45 1   
@<TRIPOS>SUBSTRUCTURE
     1 HK5         1 TEMP              0 ****  ****    0 ROOT
