@<TRIPOS>MOLECULE
molecule
   45    49     1     0     0
SMALL
bcc


@<TRIPOS>ATOM
      1 N5          -1.2770    -0.0060    -2.2280 n1         1 HK5      -0.353800
      2 C22         -0.7160     0.0070    -1.2400 cg         1 HK5       0.234800
      3 C19          0.0000     0.0000     0.0000 ca         1 HK5      -0.013000
      4 C18          1.3990     0.0000     0.0000 ca         1 HK5      -0.090000
      5 C17          2.0840     0.0000     1.1880 ca         1 HK5      -0.115500
      6 C20         -0.6980    -0.0010     1.2120 ca         1 HK5      -0.090000
      7 C21         -0.0120    -0.0070     2.3980 ca         1 HK5      -0.115500
      8 C16          1.3850    -0.0020     2.3970 ca         1 HK5      -0.008000
      9 C15          2.1250    -0.0020     3.6770 cc         1 HK5      -0.017300
     10 N4           3.2020     0.7760     3.9890 na         1 HK5      -0.021600
     11 N3           3.5970     0.4640     5.2940 nc         1 HK5      -0.486800
     12 C14          2.7910    -0.4710     5.7650 cd         1 HK5       0.382800
     13 C4           2.5200    -1.3060     6.9620 ca         1 HK5      -0.068500
     14 C3           3.1620    -1.3690     8.1990 ca         1 HK5      -0.197000
     15 C13          1.8530    -0.7760     4.7660 cd         1 HK5      -0.287600
     16 C12          0.9400    -1.8430     5.3150 c3         1 HK5       0.057200
     17 C5           1.4260    -2.1310     6.7160 ca         1 HK5      -0.115300
     18 C6           0.9800    -3.0040     7.6860 ca         1 HK5      -0.076000
     19 C7           1.6160    -3.0650     8.9110 ca         1 HK5      -0.099300
     20 C2           2.7090    -2.2480     9.1680 ca         1 HK5       0.166100
     21 O            3.3340    -2.3110    10.3720 os         1 HK5      -0.317900
     22 C1           4.4520    -1.4420    10.5700 c3         1 HK5       0.114700
     23 C8           1.1250    -4.0200     9.9690 c3         1 HK5      -0.148400
     24 N1           0.2100    -3.3190    10.8730 na         1 HK5      -0.129900
     25 C11         -1.1290    -3.2090    10.7310 cd         1 HK5       0.349400
     26 N2          -1.5990    -2.5140    11.7290 nc         1 HK5      -0.672000
     27 C10         -0.5890    -2.1580    12.5370 cc         1 HK5       0.291200
     28 C9           0.5500    -2.6570    12.0210 cd         1 HK5      -0.254600
     29 H15          1.9400    -0.0360    -0.9370 ha         1 HK5       0.147000
     30 H14          3.1670     0.0000     1.1880 ha         1 HK5       0.147500
     31 H16         -1.7800    -0.0380     1.2130 ha         1 HK5       0.147000
     32 H17         -0.5530    -0.0080     3.3360 ha         1 HK5       0.147500
     33 H1           3.3990     1.6830     3.6150 hn         1 HK5       0.328700
     34 H5           4.0140    -0.7310     8.4000 ha         1 HK5       0.152000
     35 H13         -0.0810    -1.4820     5.3230 hc         1 HK5       0.063200
     36 H12          1.0140    -2.7360     4.7050 hc         1 HK5       0.063200
     37 H6           0.1280    -3.6440     7.4880 ha         1 HK5       0.132000
     38 H4           5.2150    -1.9590    11.1390 h1         1 HK5       0.047033
     39 H2           4.8550    -1.1470     9.6090 h1         1 HK5       0.047033
     40 H3           4.1320    -0.5600    11.1130 h1         1 HK5       0.047033
     41 H8           1.4370    -5.0270     9.7190 h1         1 HK5       0.157200
     42 H7           0.0440    -3.9790    10.0190 h1         1 HK5       0.157200
     43 H11         -1.7190    -3.6270     9.9240 h5         1 HK5       0.068100
     44 H10         -0.6760    -1.5760    13.4460 h4         1 HK5       0.041100
     45 H9           1.5500    -2.5580    12.4270 h4         1 HK5       0.186000
@<TRIPOS>BOND
     1    27    28 2
     2    27    26 1
     3    22    21 1
     4    28    24 1
     5    26    25 2
     6    21    20 1
     7    14    20 ar
     8    14    13 ar
     9    24    25 1
    10    24    23 1
    11    20    19 ar
    12    11    12 2
    13    11    10 1
    14    13    12 1
    15    13    17 ar
    16    12    15 1
    17    10     9 1
    18    19    23 1
    19    19    18 ar
    20    17    18 ar
    21    17    16 1
    22    15     9 2
    23    15    16 1
    24     9     8 1
    25     5     8 ar
    26     5     4 ar
    27     8     7 ar
    28     4     3 ar
    29     7     6 ar
    30     3     6 ar
    31     3     2 1
    32     2     1 3
    33     4    29 1
    34     5    30 1
    35     6    31 1
    36     7    32 1
    37    10    33 1
    38    14    34 1
    39    16    35 1
    40    16    36 1
    41    18    37 1
    42    22    38 1
    43    22    39 1
    44    22    40 1
    45    23    41 1
    46    23    42 1
    47    25    43 1
    48    27    44 1
    49    28    45 1
@<TRIPOS>SUBSTRUCTURE
     1 HK5         1 TEMP              0 ****  ****    0 ROOT
