@<TRIPOS>MOLECULE
HK6
   26    28     1     0     0
SMALL
bcc


@<TRIPOS>ATOM
      1 O            0.0000     0.0000     0.0000 o          1 HK6      -0.684500
      2 C11          1.2160     0.0000     0.0000 c          1 HK6       0.629100
      3 C10          1.8840     0.0000     1.3050 ca         1 HK6      -0.158600
      4 C9           1.3600    -0.7570     2.3570 ca         1 HK6      -0.014000
      5 C8           1.9600    -0.7260     3.5970 ca         1 HK6      -0.133000
      6 C7           3.0820     0.0570     3.8120 ca         1 HK6      -0.052000
      7 C6           3.6230     0.7980     2.7800 ca         1 HK6      -0.157000
      8 C5           3.0430     0.7600     1.5190 ca         1 HK6       0.031600
      9 N1           3.6310     1.4460     0.4630 na         1 HK6      -0.235000
     10 N2           1.8180    -0.0050    -1.1780 ns         1 HK6      -0.004100
     11 C12          3.1910    -0.0270    -1.4210 ca         1 HK6      -0.089400
     12 C13          3.6790    -0.8130    -2.4590 ca         1 HK6      -0.107000
     13 C1           5.0320    -0.8240    -2.7460 ca         1 HK6      -0.032600
     14 Cl           5.6330    -1.8120    -4.0410 cl         1 HK6      -0.017400
     15 C4           4.0780     0.7270    -0.6540 ca         1 HK6      -0.008400
     16 C3           5.4320     0.7270    -0.9570 ca         1 HK6      -0.115000
     17 C2           5.9080    -0.0520    -2.0040 ca         1 HK6      -0.087000
     18 H7           0.4820    -1.3720     2.1960 ha         1 HK6       0.120000
     19 H6           1.5420    -1.3040     4.4130 ha         1 HK6       0.109000
     20 H5           3.5470     0.0760     4.7900 ha         1 HK6       0.103000
     21 H4           4.5000     1.4080     2.9540 ha         1 HK6       0.110000
     22 H3           4.3740     2.0190     0.8100 hn         1 HK6       0.256800
     23 H8           1.2240     0.0090    -1.9830 hn         1 HK6       0.177500
     24 H9           2.9980    -1.4180    -3.0450 ha         1 HK6       0.124000
     25 H2           6.1180     1.3310    -0.3760 ha         1 HK6       0.114000
     26 H1           6.9670    -0.0640    -2.2330 ha         1 HK6       0.118000
@<TRIPOS>BOND
     1     1     2 2   
     2     2     3 1   
     3     2    10 1   
     4     3     4 ar  
     5     3     8 ar  
     6     4     5 ar  
     7     4    18 1   
     8     5     6 ar  
     9     5    19 1   
    10     6     7 ar  
    11     6    20 1   
    12     7     8 ar  
    13     7    21 1   
    14     8     9 1   
    15     9    15 1   
    16     9    22 1   
    17    10    11 1   
    18    10    23 1   
    19    11    12 ar  
    20    11    15 ar  
    21    12    13 ar  
    22    12    24 1   
    23    13    14 1   
    24    13    17 ar  
    25    15    16 ar  
    26    16    17 ar  
    27    16    25 1   
    28    17    26 1   
@<TRIPOS>SUBSTRUCTURE
     1 HK6         1 TEMP              0 ****  ****    0 ROOT
