@<TRIPOS>MOLECULE
molecule
   41    44     1     0     0
SMALL
bcc


@<TRIPOS>ATOM
      1 O2           0.0000     0.0000     0.0000 o          1 HK7      -0.398100
      2 C16          1.2160     0.0000     0.0000 c          1 HK7       0.496700
      3 N3           1.8890     0.0000     1.1670 nz         1 HK7      -0.679400
      4 C15          1.9550    -0.0060    -1.2790 ca         1 HK7      -0.212600
      5 C14          3.3430     0.1260    -1.2880 ca         1 HK7      -0.111000
      6 C13          4.0280     0.1200    -2.4850 ca         1 HK7      -0.115000
      7 C12          3.3460    -0.0160    -3.6830 ca         1 HK7      -0.049000
      8 C11          1.9710    -0.1480    -3.6930 ca         1 HK7      -0.113000
      9 C10          1.2630    -0.1500    -2.4950 cp         1 HK7       0.079000
     10 C8          -0.2120    -0.2910    -2.5020 cp         1 HK7      -0.074000
     11 C7          -0.8140    -1.3680    -1.8450 ca         1 HK7      -0.117000
     12 C6          -2.1830    -1.4930    -1.8290 ca         1 HK7      -0.058000
     13 C5          -2.9840    -0.5400    -2.4690 ca         1 HK7      -0.142600
     14 C1          -4.4450    -0.6440    -2.3850 c          1 HK7       0.705100
     15 O1          -4.9120    -1.0180    -1.3260 o          1 HK7      -0.632500
     16 C9          -0.9990     0.6530    -3.1570 ca         1 HK7      -0.086000
     17 C4          -2.3790     0.5220    -3.1580 ca         1 HK7       0.146600
     18 N2          -3.1620     1.4300    -3.8620 na         1 HK7      -0.628000
     19 C3          -3.9820     0.9670    -4.8990 ca         1 HK7       0.066600
     20 C17         -3.7680     1.4320    -6.1900 ca         1 HK7      -0.080000
     21 C18         -4.5420     0.9620    -7.2340 ca         1 HK7      -0.135000
     22 C19         -5.5290     0.0250    -6.9940 ca         1 HK7      -0.096000
     23 C20         -5.7560    -0.4320    -5.7100 ca         1 HK7      -0.145000
     24 C2          -4.9950     0.0470    -4.6510 ca         1 HK7       0.018600
     25 N1          -5.3000    -0.3700    -3.3550 ns         1 HK7      -0.453100
     26 H16          2.4980    -0.7940     1.2010 hn         1 HK7       0.475467
     27 H17          2.4300     0.8390     1.2400 hn         1 HK7       0.475467
     28 H9           3.8830     0.2330    -0.3550 ha         1 HK7       0.110000
     29 H8           5.1060     0.2230    -2.4880 ha         1 HK7       0.162000
     30 H7           3.8940    -0.0170    -4.6170 ha         1 HK7       0.166000
     31 H6           1.4450    -0.2560    -4.6330 ha         1 HK7       0.174000
     32 H4          -0.1980    -2.1190    -1.3650 ha         1 HK7       0.125000
     33 H3          -2.6430    -2.3300    -1.3180 ha         1 HK7       0.163000
     34 H5          -0.5370     1.5180    -3.6170 ha         1 HK7       0.155000
     35 H2          -3.7090     1.9680    -3.2190 hn         1 HK7       0.399800
     36 H12         -2.9940     2.1660    -6.3780 ha         1 HK7       0.149000
     37 H13         -4.3660     1.3190    -8.2410 ha         1 HK7       0.145000
     38 H14         -6.1360    -0.3420    -7.8130 ha         1 HK7       0.146000
     39 H15         -6.5310    -1.1670    -5.5280 ha         1 HK7       0.145000
     40 H1          -6.2710    -0.4720    -3.1370 hn         1 HK7       0.347500
     41 H33          1.2390    -0.0450     1.9270 hn         1 HK7       0.475467
@<TRIPOS>BOND
     1    22    23 ar
     2    22    21 ar
     3    23    24 ar
     4    21    20 ar
     5    25    24 1
     6    25    14 1
     7    24    19 ar
     8    15    14 2
     9    14    13 1
    10    12    13 ar
    11    12    11 ar
    12    20    19 ar
    13    19    18 1
    14    13    17 ar
    15    11    10 ar
    16    17    18 1
    17    17    16 ar
    18    10    16 ar
    19    10     9 1
    20     8     9 ar
    21     8     7 ar
    22     9     4 ar
    23     7     6 ar
    24     4     2 1
    25     4     5 ar
    26     6     5 ar
    27     2     3 1
    28     2     1 2
    29     3    26 1
    30     3    27 1
    31     5    28 1
    32     6    29 1
    33     7    30 1
    34     8    31 1
    35    11    32 1
    36    12    33 1
    37    16    34 1
    38    18    35 1
    39    20    36 1
    40    21    37 1
    41    22    38 1
    42    23    39 1
    43    25    40 1
    44    41     3 1
@<TRIPOS>SUBSTRUCTURE
     1 HK7         1 TEMP              0 ****  ****    0 ROOT
