@<TRIPOS>MOLECULE
HK7
   41    44     1     0     0
SMALL
bcc


@<TRIPOS>ATOM
      1 O2           0.0000     0.0000     0.0000 o          1 HK7      -0.410100
      2 C16          1.2160     0.0000     0.0000 c          1 HK7       0.344700
      3 N3           1.8890     0.0000     1.1670 nz         1 HK7       0.195600
      4 C15          1.9550    -0.0060    -1.2790 ca         1 HK7      -0.236600
      5 C14          3.3430     0.1260    -1.2880 ca         1 HK7      -0.082000
      6 C13          4.0280     0.1200    -2.4850 ca         1 HK7      -0.083000
      7 C12          3.3460    -0.0160    -3.6830 ca         1 HK7      -0.008000
      8 C11          1.9710    -0.1480    -3.6930 ca         1 HK7      -0.089000
      9 C10          1.2630    -0.1500    -2.4950 cp         1 HK7       0.104000
     10 C8          -0.2120    -0.2910    -2.5020 cp         1 HK7      -0.079000
     11 C7          -0.8140    -1.3680    -1.8450 ca         1 HK7      -0.096000
     12 C6          -2.1830    -1.4930    -1.8290 ca         1 HK7      -0.021000
     13 C5          -2.9840    -0.5400    -2.4690 ca         1 HK7      -0.136600
     14 C1          -4.4450    -0.6440    -2.3850 c          1 HK7       0.601100
     15 O1          -4.9120    -1.0180    -1.3260 o          1 HK7      -0.678500
     16 C9          -0.9990     0.6530    -3.1570 ca         1 HK7      -0.058000
     17 C4          -2.3790     0.5220    -3.1580 ca         1 HK7       0.043600
     18 N2          -3.1620     1.4300    -3.8620 na         1 HK7      -0.305000
     19 C3          -3.9820     0.9670    -4.8990 ca         1 HK7      -0.029400
     20 C17         -3.7680     1.4320    -6.1900 ca         1 HK7      -0.052000
     21 C18         -4.5420     0.9620    -7.2340 ca         1 HK7      -0.100000
     22 C19         -5.5290     0.0250    -6.9940 ca         1 HK7      -0.064000
     23 C20         -5.7560    -0.4320    -5.7100 ca         1 HK7      -0.110000
     24 C2          -4.9950     0.0470    -4.6510 ca         1 HK7      -0.128400
     25 N1          -5.3000    -0.3700    -3.3550 ns         1 HK7       0.005900
     26 H16          2.4980    -0.7940     1.2010 hn         1 HK7       0.245467
     27 H17          2.4300     0.8390     1.2400 hn         1 HK7       0.245467
     28 H9           3.8830     0.2330    -0.3550 ha         1 HK7       0.082000
     29 H8           5.1060     0.2230    -2.4880 ha         1 HK7       0.128000
     30 H7           3.8940    -0.0170    -4.6170 ha         1 HK7       0.126000
     31 H6           1.4450    -0.2560    -4.6330 ha         1 HK7       0.138000
     32 H4          -0.1980    -2.1190    -1.3650 ha         1 HK7       0.097000
     33 H3          -2.6430    -2.3300    -1.3180 ha         1 HK7       0.130000
     34 H5          -0.5370     1.5180    -3.6170 ha         1 HK7       0.123000
     35 H2          -3.7090     1.9680    -3.2190 hn         1 HK7       0.266800
     36 H12         -2.9940     2.1660    -6.3780 ha         1 HK7       0.116000
     37 H13         -4.3660     1.3190    -8.2410 ha         1 HK7       0.114000
     38 H14         -6.1360    -0.3420    -7.8130 ha         1 HK7       0.113000
     39 H15         -6.5310    -1.1670    -5.5280 ha         1 HK7       0.117000
     40 H1          -6.2710    -0.4720    -3.1370 hn         1 HK7       0.186500
     41 H33          1.2390    -0.0450     1.9270 hn         1 HK7       0.245467
@<TRIPOS>BOND
     1     1     2 2   
     2     2     3 1   
     3     2     4 1   
     4     3    26 1   
     5     3    27 1   
     6     3    41 1   
     7     4     5 ar  
     8     4     9 ar  
     9     5     6 ar  
    10     5    28 1   
    11     6     7 ar  
    12     6    29 1   
    13     7     8 ar  
    14     7    30 1   
    15     8     9 ar  
    16     8    31 1   
    17     9    10 1   
    18    10    11 ar  
    19    10    16 ar  
    20    11    12 ar  
    21    11    32 1   
    22    12    13 ar  
    23    12    33 1   
    24    13    14 1   
    25    13    17 ar  
    26    14    15 2   
    27    14    25 1   
    28    16    17 ar  
    29    16    34 1   
    30    17    18 1   
    31    18    19 1   
    32    18    35 1   
    33    19    20 ar  
    34    19    24 ar  
    35    20    21 ar  
    36    20    36 1   
    37    21    22 ar  
    38    21    37 1   
    39    22    23 ar  
    40    22    38 1   
    41    23    24 ar  
    42    23    39 1   
    43    24    25 1   
    44    25    40 1   
@<TRIPOS>SUBSTRUCTURE
     1 HK7         1 TEMP              0 ****  ****    0 ROOT
