@<TRIPOS>MOLECULE
HK8
   31    33     1     0     0
SMALL
bcc


@<TRIPOS>ATOM
      1 O3           0.0000     0.0000     0.0000 o          1 HK8      -0.722500
      2 C13          1.2160     0.0000     0.0000 c          1 HK8       0.620100
      3 C12          1.8830     0.0000     1.3060 ca         1 HK8      -0.152600
      4 C11          1.3560    -0.7550     2.3580 ca         1 HK8      -0.008000
      5 C10          1.9530    -0.7200     3.5990 ca         1 HK8      -0.154000
      6 C9           3.0740     0.0660     3.8160 ca         1 HK8       0.013400
      7 Cl           3.7990     0.1220     5.3920 cl         1 HK8      -0.050400
      8 C8           3.6170     0.8050     2.7810 ca         1 HK8      -0.172000
      9 C7           3.0430     0.7600     1.5190 ca         1 HK8       0.060600
     10 N1           3.6350     1.4370     0.4610 na         1 HK8      -0.229000
     11 N2           1.8170    -0.0060    -1.1800 ns         1 HK8       0.019900
     12 C14          3.1900    -0.0350    -1.4240 ca         1 HK8      -0.116400
     13 C6           4.0780     0.7080    -0.6490 ca         1 HK8      -0.057400
     14 C5           5.4330     0.7060    -0.9560 ca         1 HK8      -0.124000
     15 C4           5.9060    -0.0620    -2.0030 ca         1 HK8      -0.081000
     16 C15          3.6750    -0.8170    -2.4670 ca         1 HK8      -0.098000
     17 C3           5.0310    -0.8270    -2.7510 ca         1 HK8       0.017700
     18 C2           5.5560    -1.6770    -3.8790 c3         1 HK8      -0.098100
     19 C1           5.5520    -0.8750    -5.1550 c          1 HK8       0.980600
     20 O2           5.1620     0.2690    -5.1490 o          1 HK8      -0.890800
     21 O1           5.9810    -1.4310    -6.2990 o          1 HK8      -0.890800
     22 H9           0.4810    -1.3720     2.1960 ha         1 HK8       0.119000
     23 H8           1.5440    -1.3100     4.4100 ha         1 HK8       0.112000
     24 H7           4.4930     1.4180     2.9560 ha         1 HK8       0.119000
     25 H6           4.3820     2.0070     0.8060 hn         1 HK8       0.250800
     26 H10          1.2210     0.0130    -1.9840 hn         1 HK8       0.176500
     27 H5           6.1200     1.3050    -0.3720 ha         1 HK8       0.095000
     28 H4           6.9650    -0.0740    -2.2300 ha         1 HK8       0.110000
     29 H11          2.9930    -1.4190    -3.0560 ha         1 HK8       0.116000
     30 H2           6.5680    -1.9920    -3.6530 hc         1 HK8       0.016200
     31 H3           4.9250    -2.5490    -3.9980 hc         1 HK8       0.016200
@<TRIPOS>BOND
     1     1     2 2   
     2     2     3 1   
     3     2    11 1   
     4     3     4 ar  
     5     3     9 ar  
     6     4     5 ar  
     7     4    22 1   
     8     5     6 ar  
     9     5    23 1   
    10     6     7 1   
    11     6     8 ar  
    12     8     9 ar  
    13     8    24 1   
    14     9    10 1   
    15    10    13 1   
    16    10    25 1   
    17    11    12 1   
    18    11    26 1   
    19    12    13 ar  
    20    12    16 ar  
    21    13    14 ar  
    22    14    15 ar  
    23    14    27 1   
    24    15    17 ar  
    25    15    28 1   
    26    16    17 ar  
    27    16    29 1   
    28    17    18 1   
    29    18    19 1   
    30    18    30 1   
    31    18    31 1   
    32    19    20 1   
    33    19    21 1   
@<TRIPOS>SUBSTRUCTURE
     1 HK8         1 TEMP              0 ****  ****    0 ROOT
