@<TRIPOS>MOLECULE
molecule
   31    33     1     0     0
SMALL
bcc


@<TRIPOS>ATOM
      1 O3           0.0000     0.0000     0.0000 o          1 HK8      -0.673500
      2 C13          1.2160     0.0000     0.0000 c          1 HK8       0.726100
      3 C12          1.8830     0.0000     1.3060 ca         1 HK8      -0.152600
      4 C11          1.3560    -0.7550     2.3580 ca         1 HK8      -0.043000
      5 C10          1.9530    -0.7200     3.5990 ca         1 HK8      -0.173000
      6 C9           3.0740     0.0660     3.8160 ca         1 HK8       0.072400
      7 Cl           3.7990     0.1220     5.3920 cl         1 HK8      -0.123400
      8 C8           3.6170     0.8050     2.7810 ca         1 HK8      -0.196000
      9 C7           3.0430     0.7600     1.5190 ca         1 HK8       0.176600
     10 N1           3.6350     1.4370     0.4610 na         1 HK8      -0.582000
     11 N2           1.8170    -0.0060    -1.1800 ns         1 HK8      -0.441100
     12 C14          3.1900    -0.0350    -1.4240 ca         1 HK8       0.037600
     13 C6           4.0780     0.7080    -0.6490 ca         1 HK8       0.051600
     14 C5           5.4330     0.7060    -0.9560 ca         1 HK8      -0.152000
     15 C4           5.9060    -0.0620    -2.0030 ca         1 HK8      -0.112000
     16 C15          3.6750    -0.8170    -2.4670 ca         1 HK8      -0.130000
     17 C3           5.0310    -0.8270    -2.7510 ca         1 HK8       0.010700
     18 C2           5.5560    -1.6770    -3.8790 c3         1 HK8      -0.156100
     19 C1           5.5520    -0.8750    -5.1550 c          1 HK8       0.892600
     20 O2           5.1620     0.2690    -5.1490 o          1 HK8      -0.838800
     21 O1           5.9810    -1.4310    -6.2990 o          1 HK8      -0.838800
     22 H9           0.4810    -1.3720     2.1960 ha         1 HK8       0.153000
     23 H8           1.5440    -1.3100     4.4100 ha         1 HK8       0.140000
     24 H7           4.4930     1.4180     2.9560 ha         1 HK8       0.143000
     25 H6           4.3820     2.0070     0.8060 hn         1 HK8       0.386800
     26 H10          1.2210     0.0130    -1.9840 hn         1 HK8       0.338500
     27 H5           6.1200     1.3050    -0.3720 ha         1 HK8       0.117000
     28 H4           6.9650    -0.0740    -2.2300 ha         1 HK8       0.138000
     29 H11          2.9930    -1.4190    -3.0560 ha         1 HK8       0.143000
     30 H2           6.5680    -1.9920    -3.6530 hc         1 HK8       0.043700
     31 H3           4.9250    -2.5490    -3.9980 hc         1 HK8       0.043700
@<TRIPOS>BOND
     1    20    19 1
     2    19    21 1
     3    19    18 1
     4    18    17 1
     5    17    16 ar
     6    17    15 ar
     7    16    12 ar
     8    15    14 ar
     9    11    12 1
    10    11     2 1
    11    12    13 ar
    12     1     2 2
    13     2     3 1
    14     4     3 ar
    15     4     5 ar
    16    14    13 ar
    17     3     9 ar
    18    13    10 1
    19     5     6 ar
    20     9    10 1
    21     9     8 ar
    22     6     8 ar
    23     6     7 1
    24     4    22 1
    25     5    23 1
    26     8    24 1
    27    10    25 1
    28    11    26 1
    29    14    27 1
    30    15    28 1
    31    16    29 1
    32    18    30 1
    33    18    31 1
@<TRIPOS>SUBSTRUCTURE
     1 HK8         1 TEMP              0 ****  ****    0 ROOT
