@<TRIPOS>MOLECULE
molecule
   42    45     1     0     0
SMALL
bcc


@<TRIPOS>ATOM
      1 O4           0.0000     0.0000     0.0000 o          1 HK9      -0.653500
      2 C14          1.2160     0.0000     0.0000 c          1 HK9       0.717100
      3 N2           1.8170     0.0000     1.1790 ns         1 HK9      -0.465100
      4 C13          3.1890     0.0220     1.4230 ca         1 HK9       0.027600
      5 C18          3.6780     0.8040     2.4640 ca         1 HK9      -0.158000
      6 C19          5.0290     0.8160     2.7510 ca         1 HK9      -0.113000
      7 C20          5.9040     0.0470     2.0070 ca         1 HK9      -0.147000
      8 C21          5.4310    -0.7240     0.9630 ca         1 HK9      -0.079000
      9 C12          4.0770    -0.7260     0.6570 ca         1 HK9       0.088600
     10 N1           3.6300    -1.4460    -0.4590 na         1 HK9      -0.626000
     11 C15          1.8830    -0.0070    -1.3050 ca         1 HK9      -0.201600
     12 C11          3.0430    -0.7630    -1.5160 ca         1 HK9       0.128600
     13 C10          3.6210    -0.8080    -2.7750 ca         1 HK9      -0.116000
     14 C16          1.3550     0.7480    -2.3600 ca         1 HK9      -0.062000
     15 C17          1.9490     0.7140    -3.6000 ca         1 HK9      -0.147000
     16 C9           3.0720    -0.0690    -3.8200 cp         1 HK9       0.034000
     17 C4           3.6900    -0.1150    -5.1660 cp         1 HK9      -0.059000
     18 C3           3.1460     0.6320    -6.2080 ca         1 HK9      -0.229000
     19 C5           4.8220    -0.9040    -5.3870 ca         1 HK9      -0.169000
     20 C6           5.3980    -0.9520    -6.6240 ca         1 HK9      -0.072000
     21 C7           4.8580    -0.2110    -7.6790 ca         1 HK9      -0.104600
     22 C8           5.4810    -0.2650    -9.0140 c          1 HK9       0.879200
     23 O3           6.5730    -1.0300    -9.2170 o          1 HK9      -0.825300
     24 O2           5.0120     0.3790    -9.9310 o          1 HK9      -0.825300
     25 C2           3.7260     0.5890    -7.4650 ca         1 HK9       0.149100
     26 O1           3.1990     1.3140    -8.4840 os         1 HK9      -0.259900
     27 C1           2.0460     2.1040    -8.1890 c3         1 HK9       0.121700
     28 H9           1.2210    -0.0180     1.9830 hn         1 HK9       0.327500
     29 H12          2.9960     1.4070     3.0520 ha         1 HK9       0.132000
     30 H13          5.4030     1.4300     3.5620 ha         1 HK9       0.128000
     31 H14          6.9620     0.0530     2.2400 ha         1 HK9       0.132000
     32 H15          6.1170    -1.3320     0.3850 ha         1 HK9       0.152000
     33 H8           3.0230    -2.1830    -0.1600 hn         1 HK9       0.386800
     34 H7           4.4990    -1.4200    -2.9470 ha         1 HK9       0.156000
     35 H10          0.4780     1.3620    -2.1980 ha         1 HK9       0.140000
     36 H11          1.5250     1.2880    -4.4160 ha         1 HK9       0.142000
     37 H4           2.2720     1.2480    -6.0350 ha         1 HK9       0.118000
     38 H5           5.2440    -1.4800    -4.5730 ha         1 HK9       0.113000
     39 H6           6.2760    -1.5660    -6.7870 ha         1 HK9       0.164000
     40 H3           1.7310     2.6300    -9.0820 h1         1 HK9       0.026033
     41 H2           1.2450     1.4610    -7.8470 h1         1 HK9       0.026033
     42 H1           2.2890     2.8220    -7.4150 h1         1 HK9       0.026033
@<TRIPOS>BOND
     1     5     6 ar
     2     5     4 ar
     3     6     7 ar
     4     3     4 1
     5     3     2 1
     6     1     2 2
     7     4     9 ar
     8     7     8 ar
     9     2    11 1
    10    14    11 ar
    11    14    15 ar
    12    11    12 ar
    13     9     8 ar
    14     9    10 1
    15    15    16 ar
    16    12    10 1
    17    12    13 ar
    18    16    13 ar
    19    16    17 1
    20    17    19 ar
    21    17    18 ar
    22    19    20 ar
    23    18    25 ar
    24    27    26 1
    25    20    21 ar
    26    25    21 ar
    27    25    26 1
    28    21    22 1
    29    24    22 1
    30    22    23 1
    31     3    28 1
    32     5    29 1
    33     6    30 1
    34     7    31 1
    35     8    32 1
    36    10    33 1
    37    13    34 1
    38    14    35 1
    39    15    36 1
    40    18    37 1
    41    19    38 1
    42    20    39 1
    43    27    40 1
    44    27    41 1
    45    27    42 1
@<TRIPOS>SUBSTRUCTURE
     1 HK9         1 TEMP              0 ****  ****    0 ROOT
