@<TRIPOS>MOLECULE
molecule
   29    30     1     0     0
SMALL
bcc


@<TRIPOS>ATOM
      1 CAL          0.0000     0.0000     0.0000 ca         1 HKA       0.085100
      2 CAJ          1.3810     0.0000     0.0000 ca         1 HKA      -0.166000
      3 CAP          2.0770     0.0000     1.2120 ca         1 HKA      -0.094600
      4 CAI          1.3720     0.0000     2.4190 ca         1 HKA      -0.096000
      5 CAK         -0.0060    -0.0010     2.4120 ca         1 HKA      -0.204000
      6 CAR         -0.6970     0.0000     1.2080 ca         1 HKA       0.076100
      7 CAO          3.5520     0.0010     1.2180 c          1 HKA       0.884200
      8 OAN         -2.0540    -0.0010     1.2070 os         1 HKA      -0.255200
      9 OAB          4.2210     0.0010     2.3880 o          1 HKA      -0.837300
     10 OAA          4.1640     0.0000     0.1690 o          1 HKA      -0.837300
     11 CAM          0.0990     0.0110    -2.3760 c3         1 HKA       0.130700
     12 CAG         -3.0180     1.2170     3.0090 ca         1 HKA      -0.139500
     13 CAE         -3.6740     1.2260     4.2250 ca         1 HKA      -0.130500
     14 C2          -2.6940     0.0110     2.4050 ca         1 HKA       0.142100
     15 CAD         -4.0000     0.0340     4.8430 ca         1 HKA      -0.150000
     16 CAF         -3.6740    -1.1700     4.2470 ca         1 HKA      -0.130500
     17 OAL         -0.6800     0.0050    -1.1770 os         1 HKA      -0.337900
     18 CAH         -3.0240    -1.1850     3.0280 ca         1 HKA      -0.139500
     19 HAJ          1.9240    -0.0000    -0.9380 ha         1 HKA       0.157000
     20 HAI          1.9090    -0.0000     3.3600 ha         1 HKA       0.159000
     21 HAK         -0.5510    -0.0010     3.3480 ha         1 HKA       0.127000
     22 HAM1        -0.5610     0.0160    -3.2350 h1         1 HKA       0.034367
     23 HAM2         0.7240     0.8950    -2.3970 h1         1 HKA       0.034367
     24 HAM3         0.7230    -0.8740    -2.4060 h1         1 HKA       0.034367
     25 HAH         -3.0770    -2.1700     2.5820 ha         1 HKA       0.143500
     26 HAF         -3.9610    -2.0830     4.7550 ha         1 HKA       0.124000
     27 HAD         -4.5130     0.0420     5.7980 ha         1 HKA       0.118000
     28 HAG         -2.8050     2.1510     2.5020 ha         1 HKA       0.143500
     29 HAE         -3.9400     2.1680     4.6890 ha         1 HKA       0.124000
@<TRIPOS>BOND
     1     1     2 ar
     2     1     6 ar
     3     1    17 1
     4     2     3 ar
     5     4     5 ar
     6     4     3 ar
     7     5     6 ar
     8     6     8 1
     9     8    14 1
    10     7     9 1
    11     7    10 1
    12     7     3 1
    13    11    17 1
    14    18    16 ar
    15    18    14 ar
    16    16    15 ar
    17    14    12 ar
    18    15    13 ar
    19    13    12 ar
    20     2    19 1
    21     4    20 1
    22     5    21 1
    23    11    22 1
    24    11    23 1
    25    11    24 1
    26    18    25 1
    27    16    26 1
    28    15    27 1
    29    12    28 1
    30    13    29 1
@<TRIPOS>SUBSTRUCTURE
     1 HKA         1 TEMP              0 ****  ****    0 ROOT
