@<TRIPOS>MOLECULE
HKA
   29    30     1     0     0
SMALL
bcc


@<TRIPOS>ATOM
      1 CAL         0.0730   -0.2920    0.5100 ca        1 HKA      0.095100
      2 CAJ         1.3390    0.2280    0.2120 ca        1 HKA     -0.174000
      3 CAP         2.3420    0.2280    1.1820 ca        1 HKA     -0.089600
      4 CAI         2.0840   -0.2980    2.4540 ca        1 HKA     -0.132000
      5 CAK         0.8330   -0.8180    2.7640 ca        1 HKA     -0.134000
      6 CAR        -0.1770   -0.8190    1.7930 ca        1 HKA      0.009100
      7 CAO         3.7150    0.8070    0.8500 c         1 HKA      0.908200
      8 OAN        -1.3870   -1.4650    2.0600 os        1 HKA     -0.237200
      9 OAB         4.5910    0.7980    1.7570 o         1 HKA     -0.824300
     10 OAA         3.8920    1.2640   -0.3140 o         1 HKA     -0.824300
     11 CAM        -0.7060    0.1680   -1.6830 c3        1 HKA      0.116700
     12 CAG        -2.2020    0.6360    3.0560 ca        1 HKA     -0.178000
     13 CAE        -3.2590    1.3000    3.6750 ca        1 HKA     -0.106000
     14 C2         -2.3670   -0.7010    2.6700 ca        1 HKA      0.147100
     15 CAD        -4.4670    0.6450    3.9100 ca        1 HKA     -0.184000
     16 CAF        -4.6240   -0.6870    3.5210 ca        1 HKA     -0.106000
     17 OAL        -0.9870   -0.3300   -0.3810 os        1 HKA     -0.329900
     18 CAH        -3.5840   -1.3700    2.9000 ca        1 HKA     -0.178000
     19 HAJ         1.5810    0.6460   -0.7780 ha        1 HKA      0.165000
     20 HAI         2.8980   -0.2860    3.1960 ha        1 HKA      0.159000
     21 HAK         0.6210   -1.2360    3.7580 ha        1 HKA      0.126000
     22 HAM1       -0.4300    1.2500   -1.6420 h1        1 HKA      0.037700
     23 HAM2        0.1120   -0.4210   -2.1660 h1        1 HKA      0.037700
     24 HAM3       -1.6710    0.0270   -2.2320 h1        1 HKA      0.037700
     25 HAH        -3.6940   -2.4160    2.5850 ha        1 HKA      0.149500
     26 HAF        -5.5780   -1.2020    3.7040 ha        1 HKA      0.120500
     27 HAD        -5.2950    1.1750    4.3990 ha        1 HKA      0.118000
     28 HAG        -1.2460    1.1480    2.8650 ha        1 HKA      0.149500
     29 HAE        -3.1340    2.3490    3.9790 ha        1 HKA      0.120500
@<TRIPOS>BOND
     1    1    2 ar  
     2    1    6 ar  
     3    1   17 1   
     4    2    3 ar  
     5    2   19 1   
     6    3    4 ar  
     7    3    7 1   
     8    4    5 ar  
     9    4   20 1   
    10    5    6 ar  
    11    5   21 1   
    12    6    8 1   
    13    7    9 1   
    14    7   10 1   
    15    8   14 1   
    16   11   17 1   
    17   11   22 1   
    18   11   23 1   
    19   11   24 1   
    20   12   13 ar  
    21   12   14 ar  
    22   12   28 1   
    23   13   15 ar  
    24   13   29 1   
    25   14   18 ar  
    26   15   16 ar  
    27   15   27 1   
    28   16   18 ar  
    29   16   26 1   
    30   18   25 1   
@<TRIPOS>SUBSTRUCTURE
     1 HKA         1 TEMP              0 ****  ****    0 ROOT
