@<TRIPOS>MOLECULE
molecule
   49    52     1     0     0
SMALL
bcc


@<TRIPOS>ATOM
      1 C01          0.0000     0.0000     0.0000 ca         1 HKB      -0.115000
      2 C02          1.3830     0.0000     0.0000 ca         1 HKB      -0.118000
      3 C03          2.0850     0.0000     1.1930 ca         1 HKB      -0.080000
      4 C04          1.3950     0.0000     2.4000 ca         1 HKB      -0.134600
      5 C05         -0.0120     0.0020     2.4010 ca         1 HKB      -0.130600
      6 C06         -0.7010     0.0070     1.1930 ca         1 HKB      -0.084000
      7 C07          2.1260    -0.0010     3.6860 c          1 HKB       0.585300
      8 C08          1.3940    -0.3070     4.9310 ca         1 HKB      -0.100600
      9 C09         -0.0170    -0.3030     4.9300 ca         1 HKB      -0.166600
     10 C10         -0.7450     0.0030     3.6870 c          1 HKB       0.582300
     11 O01         -1.9340     0.2560     3.7160 o          1 HKB      -0.491100
     12 O02          3.3170     0.2450     3.7180 o          1 HKB      -0.500100
     13 C11          2.0840    -0.5980     6.1030 ca         1 HKB      -0.144000
     14 C12          1.3820    -0.8830     7.2700 ca         1 HKB       0.164600
     15 C13         -0.0100    -0.8800     7.2750 ca         1 HKB       0.048100
     16 C14         -0.7150    -0.5900     6.1070 ca         1 HKB       0.145100
     17 O03         -2.0710    -0.5870     6.1130 oh         1 HKB      -0.479100
     18 O04         -0.6840    -1.1610     8.4210 oh         1 HKB      -0.495100
     19 N01          2.0780    -1.1750     8.4430 nu         1 HKB      -0.757500
     20 S            3.5050    -0.4020     8.7730 sy         1 HKB       1.425200
     21 O05          3.8790    -0.7940    10.0870 o          1 HKB      -0.634300
     22 O            4.3380    -0.5940     7.6370 o          1 HKB      -0.634300
     23 C15          3.1570     1.3240     8.8490 ca         1 HKB      -0.373500
     24 C16          2.8010     1.9040    10.0530 ca         1 HKB       0.019500
     25 C17          2.5270     3.2560    10.1150 ca         1 HKB      -0.227000
     26 C18          2.6110     4.0330     8.9680 ca         1 HKB       0.256600
     27 C19          2.9680     3.4480     7.7600 ca         1 HKB      -0.227000
     28 C20          3.2460     2.0960     7.7060 ca         1 HKB       0.019500
     29 N            2.3350     5.4020     9.0280 nh         1 HKB      -0.729000
     30 C21          2.0670     6.0380    10.3190 c3         1 HKB       0.227100
     31 C            2.3130     6.1990     7.7980 c3         1 HKB       0.227100
     32 H1          -0.5380    -0.0000    -0.9400 ha         1 HKB       0.139000
     33 H2           1.9200    -0.0060    -0.9400 ha         1 HKB       0.139000
     34 H3           3.1680    -0.0000     1.1860 ha         1 HKB       0.157000
     35 H4          -1.7850     0.0070     1.1870 ha         1 HKB       0.155000
     36 H5           3.1670    -0.6020     6.1070 ha         1 HKB       0.212000
     37 H6          -2.3870    -1.4750     6.0840 ho         1 HKB       0.421000
     38 H7          -0.9630    -2.0620     8.4090 ho         1 HKB       0.413000
     39 H8           1.7400    -1.8870     9.0600 hn         1 HKB       0.467800
     40 H9           2.7360     1.2970    10.9480 ha         1 HKB       0.150000
     41 H10          2.2490     3.7100    11.0590 ha         1 HKB       0.139000
     42 H11          3.0360     4.0520     6.8630 ha         1 HKB       0.139000
     43 H12          3.5250     1.6390     6.7640 ha         1 HKB       0.150000
     44 H13          1.9370     7.1040    10.1760 h1         1 HKB       0.039867
     45 H14          1.1650     5.6190    10.7480 h1         1 HKB       0.039867
     46 H15          2.9010     5.8630    10.9880 h1         1 HKB       0.039867
     47 H16          3.2990     6.2000     7.3510 h1         1 HKB       0.039867
     48 H17          2.0220     7.2160     8.0330 h1         1 HKB       0.039867
     49 H18          1.6010     5.7710     7.1030 h1         1 HKB       0.039867
@<TRIPOS>BOND
     1    21    20 2
     2    22    20 2
     3    20    19 1
     4    20    23 1
     5    19    14 1
     6    28    23 ar
     7    28    27 ar
     8    23    24 ar
     9    27    26 ar
    10    24    25 ar
    11    14    13 ar
    12    14    15 ar
    13    18    15 1
    14    26    25 ar
    15    26    29 1
    16    13     8 ar
    17    15    16 ar
    18    31    29 1
    19    29    30 1
    20    12     7 2
    21     8     7 1
    22     8     9 ar
    23    16     9 ar
    24    16    17 1
    25     7     4 1
    26     9    10 1
    27     4     3 ar
    28     4     5 ar
    29    10     5 1
    30    10    11 2
    31     3     2 ar
    32     5     6 ar
    33     2     1 ar
    34     6     1 ar
    35     1    32 1
    36     2    33 1
    37     3    34 1
    38     6    35 1
    39    13    36 1
    40    17    37 1
    41    18    38 1
    42    19    39 1
    43    24    40 1
    44    25    41 1
    45    27    42 1
    46    28    43 1
    47    30    44 1
    48    30    45 1
    49    30    46 1
    50    31    47 1
    51    31    48 1
    52    31    49 1
@<TRIPOS>SUBSTRUCTURE
     1 HKB         1 TEMP              0 ****  ****    0 ROOT
