@<TRIPOS>MOLECULE
HKB
   49    52     1     0     0
SMALL
bcc


@<TRIPOS>ATOM
      1 C01          0.0000     0.0000     0.0000 ca         1 HKB      -0.090000
      2 C02          1.3830     0.0000     0.0000 ca         1 HKB      -0.092000
      3 C03          2.0850     0.0000     1.1930 ca         1 HKB      -0.051000
      4 C04          1.3950     0.0000     2.4000 ca         1 HKB      -0.140600
      5 C05         -0.0120     0.0020     2.4010 ca         1 HKB      -0.136600
      6 C06         -0.7010     0.0070     1.1930 ca         1 HKB      -0.055000
      7 C07          2.1260    -0.0010     3.6860 c          1 HKB       0.639300
      8 C08          1.3940    -0.3070     4.9310 ca         1 HKB      -0.102600
      9 C09         -0.0170    -0.3030     4.9300 ca         1 HKB      -0.187600
     10 C10         -0.7450     0.0030     3.6870 c          1 HKB       0.641300
     11 O01         -1.9340     0.2560     3.7160 o          1 HKB      -0.532100
     12 O02          3.3170     0.2450     3.7180 o          1 HKB      -0.537100
     13 C11          2.0840    -0.5980     6.1030 ca         1 HKB      -0.140000
     14 C12          1.3820    -0.8830     7.2700 ca         1 HKB       0.077600
     15 C13         -0.0100    -0.8800     7.2750 ca         1 HKB       0.040100
     16 C14         -0.7150    -0.5900     6.1070 ca         1 HKB       0.163100
     17 O03         -2.0710    -0.5870     6.1130 oh         1 HKB      -0.459100
     18 O04         -0.6840    -1.1610     8.4210 oh         1 HKB      -0.474100
     19 N01          2.0780    -1.1750     8.4430 nu         1 HKB      -0.382500
     20 S            3.5050    -0.4020     8.7730 sy         1 HKB       1.043200
     21 O05          3.8790    -0.7940    10.0870 o          1 HKB      -0.585300
     22 O            4.3380    -0.5940     7.6370 o          1 HKB      -0.585300
     23 C15          3.1570     1.3240     8.8490 ca         1 HKB      -0.223500
     24 C16          2.8010     1.9040    10.0530 ca         1 HKB       0.056500
     25 C17          2.5270     3.2560    10.1150 ca         1 HKB      -0.221500
     26 C18          2.6110     4.0330     8.9680 ca         1 HKB       0.127600
     27 C19          2.9680     3.4480     7.7600 ca         1 HKB      -0.221500
     28 C20          3.2460     2.0960     7.7060 ca         1 HKB       0.056500
     29 N            2.3350     5.4020     9.0280 nh         1 HKB      -0.383000
     30 C21          2.0670     6.0380    10.3190 c3         1 HKB       0.209100
     31 C            2.3130     6.1990     7.7980 c3         1 HKB       0.209100
     32 H1          -0.5380    -0.0000    -0.9400 ha         1 HKB       0.107000
     33 H2           1.9200    -0.0060    -0.9400 ha         1 HKB       0.107000
     34 H3           3.1680    -0.0000     1.1860 ha         1 HKB       0.125000
     35 H4          -1.7850     0.0070     1.1870 ha         1 HKB       0.124000
     36 H5           3.1670    -0.6020     6.1070 ha         1 HKB       0.198000
     37 H6          -2.3870    -1.4750     6.0840 ho         1 HKB       0.399000
     38 H7          -0.9630    -2.0620     8.4090 ho         1 HKB       0.394000
     39 H8           1.7400    -1.8870     9.0600 hn         1 HKB       0.347800
     40 H9           2.7360     1.2970    10.9480 ha         1 HKB       0.121000
     41 H10          2.2490     3.7100    11.0590 ha         1 HKB       0.121500
     42 H11          3.0360     4.0520     6.8630 ha         1 HKB       0.121500
     43 H12          3.5250     1.6390     6.7640 ha         1 HKB       0.121000
     44 H13          1.9370     7.1040    10.1760 h1         1 HKB       0.008033
     45 H14          1.1650     5.6190    10.7480 h1         1 HKB       0.008033
     46 H15          2.9010     5.8630    10.9880 h1         1 HKB       0.008033
     47 H16          3.2990     6.2000     7.3510 h1         1 HKB       0.008033
     48 H17          2.0220     7.2160     8.0330 h1         1 HKB       0.008033
     49 H18          1.6010     5.7710     7.1030 h1         1 HKB       0.008033
@<TRIPOS>BOND
     1     1     2 ar  
     2     1     6 ar  
     3     1    32 1   
     4     2     3 ar  
     5     2    33 1   
     6     3     4 ar  
     7     3    34 1   
     8     4     5 ar  
     9     4     7 1   
    10     5     6 ar  
    11     5    10 1   
    12     6    35 1   
    13     7     8 1   
    14     7    12 2   
    15     8     9 ar  
    16     8    13 ar  
    17     9    10 1   
    18     9    16 ar  
    19    10    11 2   
    20    13    14 ar  
    21    13    36 1   
    22    14    15 ar  
    23    14    19 1   
    24    15    16 ar  
    25    15    18 1   
    26    16    17 1   
    27    17    37 1   
    28    18    38 1   
    29    19    20 1   
    30    19    39 1   
    31    20    21 2   
    32    20    22 2   
    33    20    23 1   
    34    23    24 ar  
    35    23    28 ar  
    36    24    25 ar  
    37    24    40 1   
    38    25    26 ar  
    39    25    41 1   
    40    26    27 ar  
    41    26    29 1   
    42    27    28 ar  
    43    27    42 1   
    44    28    43 1   
    45    29    30 1   
    46    29    31 1   
    47    30    44 1   
    48    30    45 1   
    49    30    46 1   
    50    31    47 1   
    51    31    48 1   
    52    31    49 1   
@<TRIPOS>SUBSTRUCTURE
     1 HKB         1 TEMP              0 ****  ****    0 ROOT
