@<TRIPOS>MOLECULE
molecule
   43    47     1     0     0
SMALL
bcc


@<TRIPOS>ATOM
      1 C19          0.0000     0.0000     0.0000 c3         1 HKC       0.126700
      2 O2           1.4290     0.0000     0.0000 os         1 HKC      -0.310900
      3 C18          2.0470     0.0000     1.2110 ca         1 HKC       0.118100
      4 C2           3.4380     0.0000     1.2810 ca         1 HKC       0.132100
      5 O1           4.1770     0.0010     0.1390 os         1 HKC      -0.308900
      6 C1           5.5990     0.0010     0.2860 c3         1 HKC       0.125700
      7 C17          1.2940     0.0050     2.3700 ca         1 HKC      -0.170000
      8 C16          1.9290     0.0040     3.6150 ca         1 HKC      -0.032000
      9 C4           3.3220    -0.0010     3.6730 ca         1 HKC      -0.070300
     10 C3           4.0700    -0.0010     2.5160 ca         1 HKC      -0.176000
     11 C7           1.3820     0.0100     4.9890 cc         1 HKC      -0.030300
     12 N1           0.2100     0.0160     5.6930 na         1 HKC      -0.025600
     13 N2           0.5240     0.0180     7.0580 nc         1 HKC      -0.484800
     14 C8           1.8350     0.0140     7.1830 cd         1 HKC       0.411800
     15 C6           2.3980     0.0080     5.8960 cd         1 HKC      -0.299600
     16 C5           3.7010     0.0010     5.1340 c3         1 HKC       0.050200
     17 C9           2.5860     0.0130     8.4620 ca         1 HKC      -0.086500
     18 C15          2.0900     0.7100     9.5630 ca         1 HKC      -0.109500
     19 C14          2.7870     0.7110    10.7500 ca         1 HKC      -0.096500
     20 C12          3.9920     0.0130    10.8520 ca         1 HKC      -0.142500
     21 C11          4.4890    -0.6840     9.7500 ca         1 HKC      -0.096500
     22 C10          3.7870    -0.6880     8.5650 ca         1 HKC      -0.109500
     23 C13          4.7420     0.0150    12.1260 cc         1 HKC       0.478000
     24 N6           5.9180    -0.6150    12.3700 na         1 HKC      -0.191400
     25 N5           6.2240    -0.3190    13.7110 nc         1 HKC      -0.212800
     26 N4           5.2690     0.4230    14.1570 nd         1 HKC      -0.003000
     27 N3           4.3970     0.6310    13.2370 nd         1 HKC      -0.414000
     28 H191        -0.3610     0.8920     0.4980 h1         1 HKC       0.041700
     29 H192        -0.3610    -0.8770     0.5230 h1         1 HKC       0.041700
     30 H193        -0.3610    -0.0150    -1.0210 h1         1 HKC       0.041700
     31 H13          6.0630     0.0010    -0.6920 h1         1 HKC       0.042700
     32 H11          5.9050     0.8850     0.8320 h1         1 HKC       0.042700
     33 H12          5.9050    -0.8840     0.8310 h1         1 HKC       0.042700
     34 H8           0.2130     0.0550     2.3130 ha         1 HKC       0.140000
     35 H1           5.1520    -0.0000     2.5710 ha         1 HKC       0.145000
     36 H9          -0.7120     0.0180     5.3010 hn         1 HKC       0.332700
     37 H2           4.2750     0.8890     5.3690 hc         1 HKC       0.067200
     38 H3           4.2680    -0.8910     5.3730 hc         1 HKC       0.067200
     39 H7           1.1550     1.2520     9.4840 ha         1 HKC       0.149000
     40 H6           2.4010     1.2530    11.6040 ha         1 HKC       0.143000
     41 H5           5.4230    -1.2270     9.8280 ha         1 HKC       0.143000
     42 H4           4.1730    -1.2290     7.7090 ha         1 HKC       0.149000
     43 H10          6.4540    -1.1700    11.7330 hn         1 HKC       0.337700
@<TRIPOS>BOND
     1     1     2 1
     2     2     3 1
     3     7     3 ar
     4     7     8 ar
     5     3     4 ar
     6    12    11 1
     7    12    13 1
     8     8    11 1
     9     8     9 ar
    10    11    15 2
    11    13    14 2
    12     4     5 1
    13     4    10 ar
    14     5     6 1
    15     9    10 ar
    16     9    16 1
    17    15    14 1
    18    15    16 1
    19    14    17 1
    20    17    18 ar
    21    17    22 ar
    22    18    19 ar
    23    22    21 ar
    24    19    20 ar
    25    21    20 ar
    26    20    23 1
    27    23    24 1
    28    23    27 2
    29    24    25 1
    30    27    26 1
    31    25    26 2
    32     1    28 1
    33     1    29 1
    34     1    30 1
    35     6    31 1
    36     6    32 1
    37     6    33 1
    38     7    34 1
    39    10    35 1
    40    12    36 1
    41    16    37 1
    42    16    38 1
    43    18    39 1
    44    19    40 1
    45    21    41 1
    46    22    42 1
    47    24    43 1
@<TRIPOS>SUBSTRUCTURE
     1 HKC         1 TEMP              0 ****  ****    0 ROOT
