@<TRIPOS>MOLECULE
HKC
   43    47     1     0     0
SMALL
bcc


@<TRIPOS>ATOM
      1 C19         0.0560    0.1300   -0.1370 c3        1 HKC      0.109700
      2 O2          1.4710    0.0160   -0.0450 os        1 HKC     -0.301900
      3 C18         1.9960   -0.0000    1.2320 ca        1 HKC      0.100100
      4 C2          3.4110   -0.1080    1.2980 ca        1 HKC      0.110100
      5 O1          4.0460   -0.1800    0.0750 os        1 HKC     -0.300900
      6 C1          5.4650   -0.2780    0.1120 c3        1 HKC      0.109700
      7 C17         1.2310    0.0800    2.4030 ca        1 HKC     -0.152000
      8 C16         1.8910    0.0520    3.6220 ca        1 HKC     -0.022000
      9 C4          3.3150   -0.0570    3.6930 ca        1 HKC     -0.075300
     10 C3          4.0700   -0.1360    2.5360 ca        1 HKC     -0.163000
     11 C7          1.4210    0.1150    4.9890 cc        1 HKC     -0.080300
     12 N1          0.2780    0.2220    5.7530 na        1 HKC      0.040400
     13 N2          0.5640    0.2280    7.0530 nc        1 HKC     -0.516800
     14 C8          1.9380    0.1220    7.2000 cd        1 HKC      0.384800
     15 C6          2.5320    0.0450    5.8990 cd        1 HKC     -0.252600
     16 C5          3.7990   -0.0690    5.1290 c3        1 HKC      0.048200
     17 C9          2.6160    0.0990    8.4840 ca        1 HKC     -0.078500
     18 C15         1.9180    0.2930    9.6850 ca        1 HKC     -0.118000
     19 C14         2.5880    0.2660   10.9050 ca        1 HKC     -0.097500
     20 C12         3.9720    0.0410   10.9450 ca        1 HKC     -0.144500
     21 C11         4.6760   -0.1470    9.7470 ca        1 HKC     -0.097500
     22 C10         4.0030   -0.1180    8.5300 ca        1 HKC     -0.118000
     23 C13         4.6550    0.0140   12.2260 cc        1 HKC      0.457000
     24 N6          5.9080   -0.5840   12.4850 na        1 HKC     -0.184400
     25 N5          6.1960   -0.4050   13.7820 nc        1 HKC     -0.196800
     26 N4          5.2230    0.2460   14.3090 nd        1 HKC     -0.047000
     27 N3          4.2610    0.5320   13.4360 nd        1 HKC     -0.372000
     28 H191       -0.2950    1.0880    0.3170 h1        1 HKC      0.045033
     29 H192       -0.1300    0.1250   -1.2420 h1        1 HKC      0.045033
     30 H193       -0.4450   -0.7420    0.3490 h1        1 HKC      0.045033
     31 H13         5.9120    0.6200    0.6030 h1        1 HKC      0.045700
     32 H11         5.7470   -0.3170   -0.9710 h1        1 HKC      0.045700
     33 H12         5.7840   -1.2120    0.6360 h1        1 HKC      0.045700
     34 H8          0.1370    0.1640    2.3590 ha        1 HKC      0.143000
     35 H1          5.1640   -0.2200    2.5900 ha        1 HKC      0.146000
     36 H9         -0.6640    0.2890    5.4450 hn        1 HKC      0.329700
     37 H2          4.3420   -1.0210    5.3570 hc        1 HKC      0.074200
     38 H3          4.4860    0.7940    5.3260 hc        1 HKC      0.074200
     39 H7          0.8310    0.4700    9.6750 ha        1 HKC      0.149500
     40 H6          2.0270    0.4230   11.8410 ha        1 HKC      0.144500
     41 H5          5.7640   -0.3050    9.7510 ha        1 HKC      0.144500
     42 H4          4.5620   -0.2650    7.5930 ha        1 HKC      0.149500
     43 H10         6.5070   -1.0720   11.8630 hn        1 HKC      0.332700
@<TRIPOS>BOND
     1    1    2 1   
     2    1   28 1   
     3    1   29 1   
     4    1   30 1   
     5    2    3 1   
     6    3    4 ar  
     7    3    7 ar  
     8    4    5 1   
     9    4   10 ar  
    10    5    6 1   
    11    6   31 1   
    12    6   32 1   
    13    6   33 1   
    14    7    8 ar  
    15    7   34 1   
    16    8    9 ar  
    17    8   11 1   
    18    9   10 ar  
    19    9   16 1   
    20   10   35 1   
    21   11   12 1   
    22   11   15 2   
    23   12   13 1   
    24   12   36 1   
    25   13   14 2   
    26   14   15 1   
    27   14   17 1   
    28   15   16 1   
    29   16   37 1   
    30   16   38 1   
    31   17   18 ar  
    32   17   22 ar  
    33   18   19 ar  
    34   18   39 1   
    35   19   20 ar  
    36   19   40 1   
    37   20   21 ar  
    38   20   23 1   
    39   21   22 ar  
    40   21   41 1   
    41   22   42 1   
    42   23   24 1   
    43   23   27 2   
    44   24   25 1   
    45   24   43 1   
    46   25   26 2   
    47   26   27 1   
@<TRIPOS>SUBSTRUCTURE
     1 HKC         1 TEMP              0 ****  ****    0 ROOT
