@<TRIPOS>MOLECULE
molecule
   21    21     1     0     0
SMALL
bcc


@<TRIPOS>ATOM
      1 OAA          0.0000     0.0000     0.0000 o          1 HKD      -0.823800
      2 CAC          1.3470     0.0000     0.0000 c          1 HKD       0.869800
      3 OAD          1.9550     0.0000     1.0510 o          1 HKD      -0.823800
      4 CAF          2.0870    -0.0010    -1.2810 cc         1 HKD      -0.098200
      5 CAG          1.3000    -0.1250    -2.4340 cc         1 HKD      -0.046000
      6 CAH          1.7050    -0.1550    -3.7540 cd         1 HKD      -0.038100
      7 OAI          0.7150    -0.2840    -4.6740 oh         1 HKD      -0.508100
      8 CAL          3.0170    -0.0700    -4.2700 c          1 HKD       0.532500
      9 OAM          3.1160    -0.1200    -5.4880 o          1 HKD      -0.602100
     10 CAK          4.2350     0.0690    -3.5550 cc         1 HKD      -0.016100
     11 OAN          5.3580     0.1260    -4.3080 oh         1 HKD      -0.512100
     12 CAJ          4.4220     0.1520    -2.1870 cd         1 HKD      -0.095000
     13 CAE          3.4710     0.1270    -1.1760 cd         1 HKD      -0.059200
     14 CAB          4.0090     0.2410     0.2260 c3         1 HKD      -0.034900
     15 H2           0.2330    -0.2080    -2.2680 ha         1 HKD       0.179000
     16 H3           0.5180    -1.1970    -4.7990 ho         1 HKD       0.404000
     17 H4           5.7320    -0.7360    -4.3810 ho         1 HKD       0.405000
     18 H5           5.4490     0.2590    -1.8600 ha         1 HKD       0.124000
     19 H6           5.0830     0.3790     0.1910 hc         1 HKD       0.048367
     20 H7           3.5520     1.0900     0.7210 hc         1 HKD       0.048367
     21 H8           3.7790    -0.6640     0.7760 hc         1 HKD       0.048367
@<TRIPOS>BOND
     1    11    10 1
     2     9     8 2
     3    10     8 1
     4    10    12 2
     5     8     6 1
     6    12    13 1
     7     7     6 1
     8     6     5 2
     9    13    14 1
    10    13     4 2
    11     5     4 1
    12     4     2 1
    13     2     3 1
    14     2     1 1
    15     5    15 1
    16     7    16 1
    17    11    17 1
    18    12    18 1
    19    14    19 1
    20    14    20 1
    21    14    21 1
@<TRIPOS>SUBSTRUCTURE
     1 HKD         1 TEMP              0 ****  ****    0 ROOT
