@<TRIPOS>MOLECULE
HKI
   71    74     1     0     0
SMALL
bcc


@<TRIPOS>ATOM
      1 CAJ         -6.3580     2.5660     8.2090 cg         1 HKI       0.233800
      2 CAL          0.0000     0.0000     0.0000 ca         1 HKI      -0.069000
      3 CAK          1.3860     0.0000     0.0000 ca         1 HKI      -0.225300
      4 CAO         -2.9580    -0.0090     7.0420 ca         1 HKI      -0.119000
      5 CAP         -2.1730    -0.0060     5.9060 ca         1 HKI      -0.146000
      6 CAN         -0.6610     0.0020     1.2200 ca         1 HKI      -0.197300
      7 CAS         -6.7730    -2.3030     7.7270 ca         1 HKI      -0.074000
      8 CAT         -9.5470    -1.9740     7.5170 ca         1 HKI      -0.267300
      9 CAR         -4.9360     0.0450     5.6740 ca         1 HKI      -0.131000
     10 CAM          2.0590     0.0000     1.2080 ca         1 HKI       0.403200
     11 CAQ         -8.5330     1.4530     7.9160 ca         1 HKI       0.442200
     12 CBL         -7.1360     1.3760     8.0330 ca         1 HKI      -0.114300
     13 CBR         -7.3290    -1.0170     7.7970 ca         1 HKI      -0.174300
     14 CBQ         -8.7300    -0.8460     7.6910 ca         1 HKI       0.419600
     15 CBI         -4.3430     0.0130     6.9290 ca         1 HKI       0.026600
     16 CBM         -7.5880    -3.3860     7.5520 ca         1 HKI      -0.111400
     17 CBP         -6.5090     0.1220     7.9720 ca         1 HKI       0.098600
     18 CBN         -2.7650     0.0210     4.6520 ca         1 HKI       0.105100
     19 CBO         -8.9780    -3.2240     7.4400 ca         1 HKI       0.164100
     20 CBJ         -4.1490     0.0440     4.5380 ca         1 HKI      -0.027600
     21 CBK          0.0800    -0.0040     2.3860 ca         1 HKI       0.360600
     22 CBH         -5.7570    -4.8300     7.0750 c          1 HKI       0.555100
     23 CAA        -11.8990    -5.4180     6.9700 c3         1 HKI       0.000900
     24 CAB         -0.9750    -8.6850     6.2480 c3         1 HKI       0.181600
     25 CAC         -1.6410    -6.9900     4.6510 c3         1 HKI       0.181600
     26 CAV         -0.6270    -0.0030     3.7180 c3         1 HKI       0.151100
     27 CAX         -5.1390    -6.2050     7.0560 c3         1 HKI      -0.104400
     28 CBT         -3.6960    -6.1090     6.5560 c3         1 HKI      -0.030400
     29 CAY         -3.0690    -7.5050     6.5380 c3         1 HKI       0.155800
     30 CAU        -11.1760    -4.0840     7.1600 c3         1 HKI       0.203400
     31 NAD         -5.7310     3.5050     8.3320 n1         1 HKI      -0.369800
     32 NBA         -9.2670     0.3820     7.7550 nb         1 HKI      -0.575000
     33 NAZ          1.3980     0.0010     2.3490 nb         1 HKI      -0.577000
     34 NBU         -1.6840    -7.4120     6.0580 n3         1 HKI      -0.544600
     35 OAG         -5.1080    -3.8680     6.7220 o          1 HKI      -0.628100
     36 OBE         -2.0400     0.0030     3.5060 os         1 HKI      -0.292900
     37 OBD         -9.7700    -4.3140     7.2670 os         1 HKI      -0.312900
     38 ClA         -4.8900     0.0770     2.9680 cl         1 HKI      -0.016400
     39 H1          -0.5420     0.0000    -0.9380 ha         1 HKI       0.108000
     40 H2           1.9280    -0.0010    -0.9380 ha         1 HKI       0.112000
     41 H3          -2.4950    -0.0300     8.0210 ha         1 HKI       0.109000
     42 H4          -1.0930    -0.0230     5.9940 ha         1 HKI       0.123000
     43 H5          -1.7440     0.0020     1.2500 ha         1 HKI       0.135000
     44 H6          -5.7010    -2.4350     7.8080 ha         1 HKI       0.175000
     45 H7         -10.6210    -1.8570     7.4340 ha         1 HKI       0.141000
     46 H8          -6.0150     0.0620     5.5850 ha         1 HKI       0.127000
     47 H9           3.1430    -0.0000     1.2240 h4         1 HKI      -0.020900
     48 H10         -9.0150     2.4170     7.8160 h4         1 HKI      -0.011900
     49 H11        -12.9650    -5.2430     6.8860 hc         1 HKI       0.012700
     50 H12        -11.7040    -6.0590     7.8210 hc         1 HKI       0.012700
     51 H13        -11.5400    -5.8970     6.0670 hc         1 HKI       0.012700
     52 H14          0.0370    -8.5940     5.8720 h1         1 HKI       0.001700
     53 H15         -1.4920    -9.4690     5.7080 h1         1 HKI       0.001700
     54 H16         -0.9490    -8.9290     7.3030 h1         1 HKI       0.001700
     55 H17         -2.0020    -5.9720     4.5680 h1         1 HKI       0.001700
     56 H18         -0.6210    -7.0420     4.2890 h1         1 HKI       0.001700
     57 H19         -2.2680    -7.6460     4.0580 h1         1 HKI       0.001700
     58 H20         -0.3920    -0.9160     4.2510 h1         1 HKI       0.020700
     59 H21         -0.2990     0.8500     4.3000 h1         1 HKI       0.020700
     60 H22         -5.3600    -6.7130     7.9870 hc         1 HKI       0.031700
     61 H23         -5.5470    -6.7730     6.2290 hc         1 HKI       0.031700
     62 H24         -3.6680    -5.5220     5.6460 hc         1 HKI       0.042200
     63 H25         -3.0830    -5.6320     7.3110 hc         1 HKI       0.042200
     64 H26         -3.1630    -7.9550     7.5190 h1         1 HKI       0.003700
     65 H27         -3.5800    -8.1200     5.8080 h1         1 HKI       0.003700
     66 H28        -11.3730    -3.4420     6.3100 h1         1 HKI       0.005700
     67 H29        -11.5330    -3.6060     8.0640 h1         1 HKI       0.005700
     68 H30         -4.7100     0.0050     8.9840 hn         1 HKI       0.298800
     69 H31         -7.4470    -5.4230     7.9950 hn         1 HKI       0.171500
     70 NBC         -5.1380     0.0040     8.0800 nu         1 HKI      -0.280000
     71 NBB         -7.0320    -4.6700     7.4820 ns         1 HKI      -0.022100
@<TRIPOS>BOND
     1     1    12 1   
     2     1    31 3   
     3     2     3 ar  
     4     2     6 ar  
     5     2    39 1   
     6     3    10 ar  
     7     3    40 1   
     8     4     5 ar  
     9     4    15 ar  
    10     4    41 1   
    11     5    18 ar  
    12     5    42 1   
    13     6    21 ar  
    14     6    43 1   
    15     7    13 ar  
    16     7    16 ar  
    17     7    44 1   
    18     8    14 ar  
    19     8    19 ar  
    20     8    45 1   
    21     9    15 ar  
    22     9    20 ar  
    23     9    46 1   
    24    10    33 ar  
    25    10    47 1   
    26    11    12 ar  
    27    11    32 ar  
    28    11    48 1   
    29    12    17 ar  
    30    13    14 ar  
    31    13    17 ar  
    32    14    32 ar  
    33    15    70 1   
    34    16    19 ar  
    35    16    71 1   
    36    17    70 1   
    37    18    20 ar  
    38    18    36 1   
    39    19    37 1   
    40    20    38 1   
    41    21    26 1   
    42    21    33 ar  
    43    22    27 1   
    44    22    35 2   
    45    22    71 1   
    46    23    30 1   
    47    23    49 1   
    48    23    50 1   
    49    23    51 1   
    50    24    34 1   
    51    24    52 1   
    52    24    53 1   
    53    24    54 1   
    54    25    34 1   
    55    25    55 1   
    56    25    56 1   
    57    25    57 1   
    58    26    36 1   
    59    26    58 1   
    60    26    59 1   
    61    27    28 1   
    62    27    60 1   
    63    27    61 1   
    64    28    29 1   
    65    28    62 1   
    66    28    63 1   
    67    29    34 1   
    68    29    64 1   
    69    29    65 1   
    70    30    37 1   
    71    30    66 1   
    72    30    67 1   
    73    68    70 1   
    74    69    71 1   
@<TRIPOS>SUBSTRUCTURE
     1 HKI         1 TEMP              0 ****  ****    0 ROOT
