@<TRIPOS>MOLECULE
molecule
   71    74     1     0     0
SMALL
bcc


@<TRIPOS>ATOM
      1 CAJ         -6.3580     2.5660     8.2090 cg         1 HKI       0.244800
      2 CAL          0.0000     0.0000     0.0000 ca         1 HKI      -0.096000
      3 CAK          1.3860     0.0000     0.0000 ca         1 HKI      -0.255300
      4 CAO         -2.9580    -0.0090     7.0420 ca         1 HKI      -0.148000
      5 CAP         -2.1730    -0.0060     5.9060 ca         1 HKI      -0.163000
      6 CAN         -0.6610     0.0020     1.2200 ca         1 HKI      -0.223300
      7 CAS         -6.7730    -2.3030     7.7270 ca         1 HKI      -0.084000
      8 CAT         -9.5470    -1.9740     7.5170 ca         1 HKI      -0.277300
      9 CAR         -4.9360     0.0450     5.6740 ca         1 HKI      -0.146000
     10 CAM          2.0590     0.0000     1.2080 ca         1 HKI       0.421200
     11 CAQ         -8.5330     1.4530     7.9160 ca         1 HKI       0.472200
     12 CBL         -7.1360     1.3760     8.0330 ca         1 HKI      -0.175300
     13 CBR         -7.3290    -1.0170     7.7970 ca         1 HKI      -0.188300
     14 CBQ         -8.7300    -0.8460     7.6910 ca         1 HKI       0.460600
     15 CBI         -4.3430     0.0130     6.9290 ca         1 HKI       0.172600
     16 CBM         -7.5880    -3.3860     7.5520 ca         1 HKI       0.030600
     17 CBP         -6.5090     0.1220     7.9720 ca         1 HKI       0.250600
     18 CBN         -2.7650     0.0210     4.6520 ca         1 HKI       0.100100
     19 CBO         -8.9780    -3.2240     7.4400 ca         1 HKI       0.155100
     20 CBJ         -4.1490     0.0440     4.5380 ca         1 HKI       0.041400
     21 CBK          0.0800    -0.0040     2.3860 ca         1 HKI       0.418600
     22 CBH         -5.7570    -4.8300     7.0750 c          1 HKI       0.651100
     23 CAA        -11.8990    -5.4180     6.9700 c3         1 HKI      -0.093100
     24 CAB         -0.9750    -8.6850     6.2480 c3         1 HKI       0.152100
     25 CAC         -1.6410    -6.9900     4.6510 c3         1 HKI       0.152100
     26 CAV         -0.6270    -0.0030     3.7180 c3         1 HKI       0.084100
     27 CAX         -5.1390    -6.2050     7.0560 c3         1 HKI      -0.163400
     28 CBT         -3.6960    -6.1090     6.5560 c3         1 HKI      -0.073400
     29 CAY         -3.0690    -7.5050     6.5380 c3         1 HKI       0.164800
     30 CAU        -11.1760    -4.0840     7.1600 c3         1 HKI       0.133400
     31 NAD         -5.7310     3.5050     8.3320 n1         1 HKI      -0.355800
     32 NBA         -9.2670     0.3820     7.7550 nb         1 HKI      -0.691000
     33 NAZ          1.3980     0.0010     2.3490 nb         1 HKI      -0.695000
     34 NBU         -1.6840    -7.4120     6.0580 n3         1 HKI      -0.734600
     35 OAG         -5.1080    -3.8680     6.7220 o          1 HKI      -0.591100
     36 OBE         -2.0400     0.0030     3.5060 os         1 HKI      -0.311900
     37 OBD         -9.7700    -4.3140     7.2670 os         1 HKI      -0.330900
     38 ClA         -4.8900     0.0770     2.9680 cl         1 HKI      -0.094400
     39 H1          -0.5420     0.0000    -0.9380 ha         1 HKI       0.139000
     40 H2           1.9280    -0.0010    -0.9380 ha         1 HKI       0.137000
     41 H3          -2.4950    -0.0300     8.0210 ha         1 HKI       0.136000
     42 H4          -1.0930    -0.0230     5.9940 ha         1 HKI       0.145000
     43 H5          -1.7440     0.0020     1.2500 ha         1 HKI       0.163000
     44 H6          -5.7010    -2.4350     7.8080 ha         1 HKI       0.197000
     45 H7         -10.6210    -1.8570     7.4340 ha         1 HKI       0.161000
     46 H8          -6.0150     0.0620     5.5850 ha         1 HKI       0.155000
     47 H9           3.1430    -0.0000     1.2240 h4         1 HKI       0.023100
     48 H10         -9.0150     2.4170     7.8160 h4         1 HKI       0.035100
     49 H11        -12.9650    -5.2430     6.8860 hc         1 HKI       0.049700
     50 H12        -11.7040    -6.0590     7.8210 hc         1 HKI       0.049700
     51 H13        -11.5400    -5.8970     6.0670 hc         1 HKI       0.049700
     52 H14          0.0370    -8.5940     5.8720 h1         1 HKI       0.033033
     53 H15         -1.4920    -9.4690     5.7080 h1         1 HKI       0.033033
     54 H16         -0.9490    -8.9290     7.3030 h1         1 HKI       0.033033
     55 H17         -2.0020    -5.9720     4.5680 h1         1 HKI       0.033033
     56 H18         -0.6210    -7.0420     4.2890 h1         1 HKI       0.033033
     57 H19         -2.2680    -7.6460     4.0580 h1         1 HKI       0.033033
     58 H20         -0.3920    -0.9160     4.2510 h1         1 HKI       0.059700
     59 H21         -0.2990     0.8500     4.3000 h1         1 HKI       0.059700
     60 H22         -5.3600    -6.7130     7.9870 hc         1 HKI       0.064200
     61 H23         -5.5470    -6.7730     6.2290 hc         1 HKI       0.064200
     62 H24         -3.6680    -5.5220     5.6460 hc         1 HKI       0.070200
     63 H25         -3.0830    -5.6320     7.3110 hc         1 HKI       0.070200
     64 H26         -3.1630    -7.9550     7.5190 h1         1 HKI       0.029200
     65 H27         -3.5800    -8.1200     5.8080 h1         1 HKI       0.029200
     66 H28        -11.3730    -3.4420     6.3100 h1         1 HKI       0.041700
     67 H29        -11.5330    -3.6060     8.0640 h1         1 HKI       0.041700
     68 H30         -4.7100     0.0050     8.9840 hn         1 HKI       0.459800
     69 H31         -7.4470    -5.4230     7.9950 hn         1 HKI       0.328500
     70 NBC         -5.1380     0.0040     8.0800 nu         1 HKI      -0.713000
     71 NBB         -7.0320    -4.6700     7.4820 ns         1 HKI      -0.459100
@<TRIPOS>BOND
     1    25    34 1
     2    34    29 1
     3    34    24 1
     4    29    28 1
     5    27    28 1
     6    27    22 1
     7    10    33 ar
     8    10     3 ar
     9    33    21 ar
    10    71    22 1
    11    71    16 1
    12    22    35 2
    13    36    18 1
    14    36    26 1
    15     3     2 ar
    16    38    20 1
    17    18    20 ar
    18    18     5 ar
    19    20     9 ar
    20     5     4 ar
    21    16     7 ar
    22    16    19 ar
    23     9    15 ar
    24    21    26 1
    25    21     6 ar
    26     4    15 ar
    27     7    13 ar
    28    15    70 1
    29    37    19 1
    30    37    30 1
    31     2     6 ar
    32    70    17 1
    33    19     8 ar
    34    23    30 1
    35    13    17 ar
    36    13    14 ar
    37    17    12 ar
    38     8    14 ar
    39    14    32 ar
    40    12     1 1
    41    12    11 ar
    42     1    31 3
    43    32    11 ar
    44     2    39 1
    45     3    40 1
    46     4    41 1
    47     5    42 1
    48     6    43 1
    49     7    44 1
    50     8    45 1
    51     9    46 1
    52    10    47 1
    53    11    48 1
    54    23    49 1
    55    23    50 1
    56    23    51 1
    57    24    52 1
    58    24    53 1
    59    24    54 1
    60    25    55 1
    61    25    56 1
    62    25    57 1
    63    26    58 1
    64    26    59 1
    65    27    60 1
    66    27    61 1
    67    28    62 1
    68    28    63 1
    69    29    64 1
    70    29    65 1
    71    30    66 1
    72    30    67 1
    73    70    68 1
    74    71    69 1
@<TRIPOS>SUBSTRUCTURE
     1 HKI         1 TEMP              0 ****  ****    0 ROOT
