@<TRIPOS>MOLECULE
HKK
   31    32     1     0     0
SMALL
bcc


@<TRIPOS>ATOM
      1 N1           0.0000     0.0000     0.0000 nb         1 HKK      -0.537000
      2 C4           1.3170     0.0000     0.0000 ca         1 HKK       0.389200
      3 C5          -0.6970    -0.0010     1.1190 ca         1 HKK       0.355300
      4 C6           3.5090     0.0000     1.1910 ce         1 HKK      -0.062400
      5 C7           4.1460     1.0440     1.6820 c2         1 HKK      -0.182200
      6 C8           5.6450     1.1350     1.7160 c3         1 HKK       0.265600
      7 C10          4.2330    -1.1920     0.6300 c3         1 HKK      -0.003200
      8 Cl          -2.4320    -0.0030     1.0480 cl         1 HKK      -0.087000
      9 C1          -0.0620    -0.0030     2.3590 ca         1 HKK      -0.036700
     10 N           -0.8120    -0.0060     3.5390 nu         1 HKK      -0.400500
     11 S           -0.2700     0.8250     4.8650 s6         1 HKK       0.952900
     12 O           -1.3080     0.6710     5.8220 o          1 HKK      -0.579300
     13 O1           1.0290     0.2980     5.1010 o          1 HKK      -0.579300
     14 C           -0.1660     2.5490     4.3080 c3         1 HKK       0.014700
     15 C3           2.0310     0.0000     1.1980 ca         1 HKK      -0.133100
     16 C2           1.3260    -0.0020     2.4070 ca         1 HKK      -0.135000
     17 C9           5.6920    -0.8210     0.3470 c3         1 HKK       0.213400
     18 O2           6.2220    -0.1540     1.4990 os         1 HKK      -0.405600
     19 H1           1.8520     0.0010    -0.9420 h4         1 HKK      -0.010900
     20 H2           3.5650     1.8690     2.0760 ha         1 HKK       0.106000
     21 H3           5.9800     1.8110     0.9380 h1         1 HKK       0.014200
     22 H4           5.9580     1.5090     2.6830 h1         1 HKK       0.014200
     23 H5           3.7560    -1.5010    -0.2920 hc         1 HKK       0.031200
     24 H6           4.2020    -2.0030     1.3480 hc         1 HKK       0.031200
     25 H7          -1.6570    -0.5400     3.5930 hn         1 HKK       0.360800
     26 H8          -0.9700     2.7530     3.6110 h1         1 HKK       0.066700
     27 H9           0.7870     2.7130     3.8190 h1         1 HKK       0.066700
     28 H10         -0.2520     3.2090     5.1630 h1         1 HKK       0.066700
     29 H11          1.8500    -0.0030     3.3550 ha         1 HKK       0.186000
     30 H12          6.2640    -1.7200     0.1530 h1         1 HKK       0.009200
     31 H13          5.7390    -0.1600    -0.5090 h1         1 HKK       0.009200
@<TRIPOS>BOND
     1     1     2 ar  
     2     1     3 ar  
     3     2    15 ar  
     4     2    19 1   
     5     3     8 1   
     6     3     9 ar  
     7     4     5 2   
     8     4     7 1   
     9     4    15 1   
    10     5     6 1   
    11     5    20 1   
    12     6    18 1   
    13     6    21 1   
    14     6    22 1   
    15     7    17 1   
    16     7    23 1   
    17     7    24 1   
    18     9    10 1   
    19     9    16 ar  
    20    10    11 1   
    21    10    25 1   
    22    11    12 2   
    23    11    13 2   
    24    11    14 1   
    25    14    26 1   
    26    14    27 1   
    27    14    28 1   
    28    15    16 ar  
    29    16    29 1   
    30    17    18 1   
    31    17    30 1   
    32    17    31 1   
@<TRIPOS>SUBSTRUCTURE
     1 HKK         1 TEMP              0 ****  ****    0 ROOT
