@<TRIPOS>MOLECULE
molecule
   31    32     1     0     0
SMALL
bcc


@<TRIPOS>ATOM
      1 N1           0.0000     0.0000     0.0000 nb         1 HKK      -0.664000
      2 C4           1.3170     0.0000     0.0000 ca         1 HKK       0.425200
      3 C5          -0.6970    -0.0010     1.1190 ca         1 HKK       0.489300
      4 C6           3.5090     0.0000     1.1910 ce         1 HKK      -0.066400
      5 C7           4.1460     1.0440     1.6820 c2         1 HKK      -0.188200
      6 C8           5.6450     1.1350     1.7160 c3         1 HKK       0.172600
      7 C10          4.2330    -1.1920     0.6300 c3         1 HKK      -0.069200
      8 Cl          -2.4320    -0.0030     1.0480 cl         1 HKK      -0.154000
      9 C1          -0.0620    -0.0030     2.3590 ca         1 HKK       0.037300
     10 N           -0.8120    -0.0060     3.5390 nu         1 HKK      -0.759500
     11 S           -0.2700     0.8250     4.8650 s6         1 HKK       1.323900
     12 O           -1.3080     0.6710     5.8220 o          1 HKK      -0.622300
     13 O1           1.0290     0.2980     5.1010 o          1 HKK      -0.622300
     14 C           -0.1660     2.5490     4.3080 c3         1 HKK      -0.243300
     15 C3           2.0310     0.0000     1.1980 ca         1 HKK      -0.151100
     16 C2           1.3260    -0.0020     2.4070 ca         1 HKK      -0.133000
     17 C9           5.6920    -0.8210     0.3470 c3         1 HKK       0.136400
     18 O2           6.2220    -0.1540     1.4990 os         1 HKK      -0.413600
     19 H1           1.8520     0.0010    -0.9420 h4         1 HKK       0.036100
     20 H2           3.5650     1.8690     2.0760 ha         1 HKK       0.130000
     21 H3           5.9800     1.8110     0.9380 h1         1 HKK       0.059200
     22 H4           5.9580     1.5090     2.6830 h1         1 HKK       0.059200
     23 H5           3.7560    -1.5010    -0.2920 hc         1 HKK       0.063700
     24 H6           4.2020    -2.0030     1.3480 hc         1 HKK       0.063700
     25 H7          -1.6570    -0.5400     3.5930 hn         1 HKK       0.477800
     26 H8          -0.9700     2.7530     3.6110 h1         1 HKK       0.102700
     27 H9           0.7870     2.7130     3.8190 h1         1 HKK       0.102700
     28 H10         -0.2520     3.2090     5.1630 h1         1 HKK       0.102700
     29 H11          1.8500    -0.0030     3.3550 ha         1 HKK       0.202000
     30 H12          6.2640    -1.7200     0.1530 h1         1 HKK       0.051200
     31 H13          5.7390    -0.1600    -0.5090 h1         1 HKK       0.051200
@<TRIPOS>BOND
     1    13    11 2
     2    12    11 2
     3    11    14 1
     4    11    10 1
     5    10     9 1
     6     8     3 1
     7     9    16 ar
     8     9     3 ar
     9    16    15 ar
    10     3     1 ar
    11     1     2 ar
    12    15     2 ar
    13    15     4 1
    14     5     4 2
    15     5     6 1
    16     4     7 1
    17     6    18 1
    18     7    17 1
    19    18    17 1
    20     2    19 1
    21     5    20 1
    22     6    21 1
    23     6    22 1
    24     7    23 1
    25     7    24 1
    26    10    25 1
    27    14    26 1
    28    14    27 1
    29    14    28 1
    30    16    29 1
    31    17    30 1
    32    17    31 1
@<TRIPOS>SUBSTRUCTURE
     1 HKK         1 TEMP              0 ****  ****    0 ROOT
