@<TRIPOS>MOLECULE
HKN
   55    58     1     0     0
SMALL
bcc


@<TRIPOS>ATOM
      1 N1           0.0000     0.0000     0.0000 nu         1 HKN      -0.354500
      2 N3          -0.1880     3.1420    -0.2170 nc         1 HKN      -0.549000
      3 C4           2.1010     0.0000     1.1960 ca         1 HKN      -0.101000
      4 C5           1.4000     0.0000     0.0000 ca         1 HKN      -0.064700
      5 C6          -0.4720     2.5410     0.9480 cc         1 HKN       0.236200
      6 C7          -0.4370     3.4750     1.9170 cd         1 HKN      -0.310600
      7 C10         -2.2220     6.5800     2.8870 ca         1 HKN      -0.081000
      8 C13         -2.7130     8.2500     0.7390 ca         1 HKN      -0.094500
      9 C15          0.0200     4.4130    -0.0060 cd         1 HKN       0.193800
     10 C17          4.2980     0.0040     2.3890 ce         1 HKN      -0.050400
     11 C20          5.5510     1.1830     4.1760 c3         1 HKN       0.213400
     12 C21          5.1590     1.1990     2.6960 c3         1 HKN      -0.003200
     13 S           -0.8280     0.8290     1.1700 sy         1 HKN       0.993800
     14 O1          -0.2470     0.4570     2.4120 o          1 HKN      -0.589800
     15 C3           3.5020    -0.0010     1.1440 ca         1 HKN      -0.190100
     16 O3           6.0250    -0.1280     4.5050 os         1 HKN      -0.410600
     17 C19          5.0030    -1.1220     4.4770 c3         1 HKN       0.265600
     18 C18          4.2330    -1.0390     3.1890 c2         1 HKN      -0.190200
     19 C2           4.1340    -0.0070    -0.0980 ca         1 HKN       0.426200
     20 N            3.4300    -0.0130    -1.2130 nb         1 HKN      -0.647000
     21 C1           2.1080    -0.0020    -1.2040 ca         1 HKN       0.594600
     22 O            1.4300    -0.0010    -2.3790 os         1 HKN      -0.429100
     23 C            2.2090    -0.0030    -3.5770 c3         1 HKN       0.258700
     24 C16          0.3680     5.4330    -1.0600 c3         1 HKN       0.003600
     25 N2          -0.1250     4.6610     1.3130 na         1 HKN       0.308100
     26 C9          -1.2750     6.7190     1.8900 ca         1 HKN      -0.141300
     27 C14         -1.5200     7.5540     0.8150 ca         1 HKN      -0.081000
     28 C12         -3.6600     8.1110     1.7360 ca         1 HKN      -0.082000
     29 C11         -3.4150     7.2770     2.8110 ca         1 HKN      -0.094500
     30 H1          -0.5000    -0.5410    -0.6770 hn         1 HKN       0.352800
     31 H2           1.5940    -0.2410     2.1220 ha         1 HKN       0.179000
     32 H3          -0.6220     3.3160     2.9730 h4         1 HKN       0.163000
     33 H4           0.8050     6.5280     1.4820 h1         1 HKN       0.042200
     34 H5           0.2870     5.8100     3.0130 h1         1 HKN       0.042200
     35 H7          -2.9060     8.9040    -0.1030 ha         1 HKN       0.107500
     36 H8           4.6860     1.4200     4.7830 h1         1 HKN       0.008200
     37 H9           6.3360     1.9080     4.3510 h1         1 HKN       0.008200
     38 H10          6.0540     1.1640     2.0860 hc         1 HKN       0.026200
     39 H11          4.6050     2.1050     2.4800 hc         1 HKN       0.026200
     40 H12          5.4570    -2.1020     4.5590 h1         1 HKN       0.012700
     41 H13          4.3280    -0.9630     5.3090 h1         1 HKN       0.012700
     42 H14          3.5990    -1.8710     2.9080 ha         1 HKN       0.112000
     43 H15          5.2160    -0.0130    -0.1480 h4         1 HKN      -0.016900
     44 H16          2.8470     0.8720    -3.5950 h1         1 HKN      -0.001300
     45 H17          1.5500     0.0130    -4.4370 h1         1 HKN      -0.001300
     46 H18          2.8210    -0.8970    -3.6090 h1         1 HKN      -0.001300
     47 H19         -0.5370     5.9170    -1.4060 hc         1 HKN       0.015033
     48 H20          0.8540     4.9400    -1.8930 hc         1 HKN       0.015033
     49 H21          1.0360     6.1740    -0.6390 hc         1 HKN       0.015033
     50 H22         -0.7780     7.6630     0.0330 ha         1 HKN       0.107500
     51 H23         -4.5940     8.6570     1.6760 ha         1 HKN       0.106000
     52 H24         -4.1570     7.1680     3.5920 ha         1 HKN       0.107500
     53 C8           0.0240     5.9610     1.9740 c3         1 HKN       0.015600
     54 O2          -2.2090     0.6650     0.8770 o          1 HKN      -0.589800
     55 H6          -2.0300     5.9260     3.7290 ha         1 HKN       0.107500
@<TRIPOS>BOND
     1     1     4 1   
     2     1    13 1   
     3     1    30 1   
     4     2     5 1   
     5     2     9 2   
     6     3     4 ar  
     7     3    15 ar  
     8     3    31 1   
     9     4    21 ar  
    10     5     6 2   
    11     5    13 1   
    12     6    25 1   
    13     6    32 1   
    14     7    26 ar  
    15     7    29 ar  
    16     7    55 1   
    17     8    27 ar  
    18     8    28 ar  
    19     8    35 1   
    20     9    24 1   
    21     9    25 1   
    22    10    12 1   
    23    10    15 1   
    24    10    18 2   
    25    11    12 1   
    26    11    16 1   
    27    11    36 1   
    28    11    37 1   
    29    12    38 1   
    30    12    39 1   
    31    13    14 2   
    32    13    54 2   
    33    15    19 ar  
    34    16    17 1   
    35    17    18 1   
    36    17    40 1   
    37    17    41 1   
    38    18    42 1   
    39    19    20 ar  
    40    19    43 1   
    41    20    21 ar  
    42    21    22 1   
    43    22    23 1   
    44    23    44 1   
    45    23    45 1   
    46    23    46 1   
    47    24    47 1   
    48    24    48 1   
    49    24    49 1   
    50    25    53 1   
    51    26    27 ar  
    52    26    53 1   
    53    27    50 1   
    54    28    29 ar  
    55    28    51 1   
    56    29    52 1   
    57    33    53 1   
    58    34    53 1   
@<TRIPOS>SUBSTRUCTURE
     1 HKN         1 TEMP              0 ****  ****    0 ROOT
