@<TRIPOS>MOLECULE
molecule
   55    58     1     0     0
SMALL
bcc


@<TRIPOS>ATOM
      1 N1           0.0000     0.0000     0.0000 nu         1 HKN      -0.743500
      2 N3          -0.1880     3.1420    -0.2170 nc         1 HKN      -0.627000
      3 C4           2.1010     0.0000     1.1960 ca         1 HKN      -0.108000
      4 C5           1.4000     0.0000     0.0000 ca         1 HKN       0.023300
      5 C6          -0.4720     2.5410     0.9480 cc         1 HKN       0.100200
      6 C7          -0.4370     3.4750     1.9170 cd         1 HKN      -0.155600
      7 C10         -2.2220     6.5800     2.8870 ca         1 HKN      -0.107500
      8 C13         -2.7130     8.2500     0.7390 ca         1 HKN      -0.124500
      9 C15          0.0200     4.4130    -0.0060 cd         1 HKN       0.407800
     10 C17          4.2980     0.0040     2.3890 ce         1 HKN      -0.054400
     11 C20          5.5510     1.1830     4.1760 c3         1 HKN       0.137400
     12 C21          5.1590     1.1990     2.6960 c3         1 HKN      -0.070200
     13 S           -0.8280     0.8290     1.1700 sy         1 HKN       1.386800
     14 O1          -0.2470     0.4570     2.4120 o          1 HKN      -0.636800
     15 C3           3.5020    -0.0010     1.1440 ca         1 HKN      -0.199100
     16 O3           6.0250    -0.1280     4.5050 os         1 HKN      -0.419600
     17 C19          5.0030    -1.1220     4.4770 c3         1 HKN       0.172600
     18 C18          4.2330    -1.0390     3.1890 c2         1 HKN      -0.197200
     19 C2           4.1340    -0.0070    -0.0980 ca         1 HKN       0.451200
     20 N            3.4300    -0.0130    -1.2130 nb         1 HKN      -0.757000
     21 C1           2.1080    -0.0020    -1.2040 ca         1 HKN       0.642600
     22 O            1.4300    -0.0010    -2.3790 os         1 HKN      -0.437100
     23 C            2.2090    -0.0030    -3.5770 c3         1 HKN       0.138700
     24 C16          0.3680     5.4330    -1.0600 c3         1 HKN      -0.106400
     25 N2          -0.1250     4.6610     1.3130 na         1 HKN      -0.167900
     26 C9          -1.2750     6.7190     1.8900 ca         1 HKN      -0.126300
     27 C14         -1.5200     7.5540     0.8150 ca         1 HKN      -0.107500
     28 C12         -3.6600     8.1110     1.7360 ca         1 HKN      -0.112000
     29 C11         -3.4150     7.2770     2.8110 ca         1 HKN      -0.124500
     30 H1          -0.5000    -0.5410    -0.6770 hn         1 HKN       0.474800
     31 H2           1.5940    -0.2410     2.1220 ha         1 HKN       0.196000
     32 H3          -0.6220     3.3160     2.9730 h4         1 HKN       0.187000
     33 H4           0.8050     6.5280     1.4820 h1         1 HKN       0.071700
     34 H5           0.2870     5.8100     3.0130 h1         1 HKN       0.071700
     35 H7          -2.9060     8.9040    -0.1030 ha         1 HKN       0.136000
     36 H8           4.6860     1.4200     4.7830 h1         1 HKN       0.049700
     37 H9           6.3360     1.9080     4.3510 h1         1 HKN       0.049700
     38 H10          6.0540     1.1640     2.0860 hc         1 HKN       0.059200
     39 H11          4.6050     2.1050     2.4800 hc         1 HKN       0.059200
     40 H12          5.4570    -2.1020     4.5590 h1         1 HKN       0.056700
     41 H13          4.3280    -0.9630     5.3090 h1         1 HKN       0.056700
     42 H14          3.5990    -1.8710     2.9080 ha         1 HKN       0.135000
     43 H15          5.2160    -0.0130    -0.1480 h4         1 HKN       0.029100
     44 H16          2.8470     0.8720    -3.5950 h1         1 HKN       0.045367
     45 H17          1.5500     0.0130    -4.4370 h1         1 HKN       0.045367
     46 H18          2.8210    -0.8970    -3.6090 h1         1 HKN       0.045367
     47 H19         -0.5370     5.9170    -1.4060 hc         1 HKN       0.056367
     48 H20          0.8540     4.9400    -1.8930 hc         1 HKN       0.056367
     49 H21          1.0360     6.1740    -0.6390 hc         1 HKN       0.056367
     50 H22         -0.7780     7.6630     0.0330 ha         1 HKN       0.130500
     51 H23         -4.5940     8.6570     1.6760 ha         1 HKN       0.135000
     52 H24         -4.1570     7.1680     3.5920 ha         1 HKN       0.136000
     53 C8           0.0240     5.9610     1.9740 c3         1 HKN       0.088600
     54 O2          -2.2090     0.6650     0.8770 o          1 HKN      -0.636800
     55 H6          -2.0300     5.9260     3.7290 ha         1 HKN       0.130500
@<TRIPOS>BOND
     1    14    13 2
     2    54    13 2
     3    13     1 1
     4    13     5 1
     5     1     4 1
     6     5     2 1
     7     5     6 2
     8     2     9 2
     9     6    25 1
    10     4     3 ar
    11     4    21 ar
    12    22    23 1
    13    22    21 1
    14     9    25 1
    15     9    24 1
    16    25    53 1
    17     7    29 ar
    18     7    26 ar
    19    29    28 ar
    20     3    15 ar
    21    21    20 ar
    22    53    26 1
    23    26    27 ar
    24    28     8 ar
    25    20    19 ar
    26    15    19 ar
    27    15    10 1
    28    27     8 ar
    29    18    10 2
    30    18    17 1
    31    10    12 1
    32    17    16 1
    33    12    11 1
    34    16    11 1
    35     1    30 1
    36     3    31 1
    37     6    32 1
    38    53    33 1
    39    53    34 1
    40     7    55 1
    41     8    35 1
    42    11    36 1
    43    11    37 1
    44    12    38 1
    45    12    39 1
    46    17    40 1
    47    17    41 1
    48    18    42 1
    49    19    43 1
    50    23    44 1
    51    23    45 1
    52    23    46 1
    53    24    47 1
    54    24    48 1
    55    24    49 1
    56    27    50 1
    57    28    51 1
    58    29    52 1
@<TRIPOS>SUBSTRUCTURE
     1 HKN         1 TEMP              0 ****  ****    0 ROOT
