@<TRIPOS>MOLECULE
molecule
   36    38     1     0     0
SMALL
bcc


@<TRIPOS>ATOM
      1 N1           0.0000     0.0000     0.0000 nu         1 HKQ      -0.759500
      2 C4           1.3970     0.0000     0.0000 ca         1 HKQ       0.045300
      3 C5          -0.4730    -2.5450    -0.9370 ca         1 HKQ      -0.315500
      4 C6           0.6100    -3.1170    -1.5790 ca         1 HKQ      -0.024500
      5 C7           0.8930    -4.4580    -1.3940 ca         1 HKQ      -0.148500
      6 C8           0.0930    -5.2250    -0.5680 ca         1 HKQ      -0.069000
      7 C10         -1.2730    -3.3120    -0.1120 ca         1 HKQ      -0.024500
      8 C13          4.4100    -0.0430    -4.7930 ca         1 HKQ      -0.126000
      9 C15          6.4290    -0.0150    -3.4990 ca         1 HKQ      -0.126000
     10 O1          -2.2090    -0.6680    -0.8750 o          1 HKQ      -0.633300
     11 S           -0.8280    -0.8340    -1.1670 sy         1 HKQ       1.426200
     12 O           -0.2480    -0.4660    -2.4110 o          1 HKQ      -0.633300
     13 C9          -0.9890    -4.6520     0.0730 ca         1 HKQ      -0.148500
     14 C            2.1030     0.0000     1.2000 ca         1 HKQ       0.491300
     15 Cl           1.2350    -0.0010     2.7030 cl         1 HKQ      -0.155000
     16 C3           2.1010    -0.0040    -1.1990 ca         1 HKQ      -0.142000
     17 C2           3.4970    -0.0050    -1.1460 cp         1 HKQ      -0.127300
     18 C1           4.1270     0.0020     0.0970 ca         1 HKQ       0.421200
     19 N            3.4210     0.0010     1.2100 nb         1 HKQ      -0.664000
     20 C11          4.2980    -0.0090    -2.3950 cp         1 HKQ      -0.046000
     21 C16          5.6900    -0.0090    -2.3330 ca         1 HKQ      -0.113500
     22 C14          5.7910    -0.0310    -4.7260 ca         1 HKQ      -0.119000
     23 C12          3.6600    -0.0320    -3.6340 ca         1 HKQ      -0.113500
     24 H1          -0.5000     0.5350     0.6820 hn         1 HKQ       0.475800
     25 H2           1.2360    -2.5150    -2.2260 ha         1 HKQ       0.149500
     26 H3           1.7410    -4.9060    -1.8970 ha         1 HKQ       0.139000
     27 H4           0.3150    -6.2760    -0.4230 ha         1 HKQ       0.136000
     28 H5          -2.1210    -2.8630     0.3900 ha         1 HKQ       0.149500
     29 H6           3.9150    -0.0590    -5.7570 ha         1 HKQ       0.134500
     30 H7           7.5110    -0.0100    -3.4530 ha         1 HKQ       0.134500
     31 H8          -1.6160    -5.2540     0.7200 ha         1 HKQ       0.139000
     32 H9           1.5810    -0.0090    -2.1490 ha         1 HKQ       0.203000
     33 H10          5.2090     0.0020     0.1490 h4         1 HKQ       0.036100
     34 H11          6.1910     0.0040    -1.3730 ha         1 HKQ       0.139500
     35 H12          6.3760    -0.0380    -5.6380 ha         1 HKQ       0.132000
     36 H13          2.5780    -0.0420    -3.6880 ha         1 HKQ       0.139500
@<TRIPOS>BOND
     1    12    11 2
     2    10    11 2
     3    11     1 1
     4    11     3 1
     5     1     2 1
     6     3     7 ar
     7     3     4 ar
     8     7    13 ar
     9     4     5 ar
    10     2    16 ar
    11     2    14 ar
    12    15    14 1
    13     5     6 ar
    14    13     6 ar
    15    16    17 ar
    16    14    19 ar
    17    17    18 ar
    18    17    20 1
    19    19    18 ar
    20    23    20 ar
    21    23     8 ar
    22    20    21 ar
    23     8    22 ar
    24    21     9 ar
    25    22     9 ar
    26     1    24 1
    27     4    25 1
    28     5    26 1
    29     6    27 1
    30     7    28 1
    31     8    29 1
    32     9    30 1
    33    13    31 1
    34    16    32 1
    35    18    33 1
    36    21    34 1
    37    22    35 1
    38    23    36 1
@<TRIPOS>SUBSTRUCTURE
     1 HKQ         1 TEMP              0 ****  ****    0 ROOT
