@<TRIPOS>MOLECULE
HKT
   40    42     1     0     0
SMALL
bcc


@<TRIPOS>ATOM
      1 CAL          0.0000     0.0000     0.0000 cc         1 HKT      -0.158300
      2 CAM         -0.8700     0.0010    -1.1950 ca         1 HKT      -0.027000
      3 CAN         -2.3610    -1.6130     2.3940 ca         1 HKT      -0.297800
      4 CAO          0.6760     0.0090     2.1160 cc         1 HKT      -0.199300
      5 CAP          1.7820     0.0000     1.3400 cd         1 HKT      -0.155300
      6 CAQ          1.3630     0.0000     0.0000 cd         1 HKT      -0.127000
      7 CAR         -0.8740     1.0990    -2.0600 ca         1 HKT       0.130900
      8 CAS         -1.6880    -1.0960    -1.4670 ca         1 HKT      -0.049000
      9 CAT         -2.0420    -1.9820     3.6870 ca         1 HKT       0.517200
     10 CAU         -2.9780    -2.5350     1.5620 ca         1 HKT       0.037000
     11 CAV          3.2080    -0.0080     1.8260 c3         1 HKT       0.237100
     12 CAW         -1.6910     1.0920    -3.1750 ca         1 HKT      -0.132000
     13 CAX         -2.4980    -1.0890    -2.5840 ca         1 HKT      -0.109000
     14 CAY         -3.2450    -3.8000     2.0630 ca         1 HKT      -0.253300
     15 CAZ         -2.5030     0.0020    -3.4340 ca         1 HKT      -0.066000
     16 CBA         -2.8910    -4.0980     3.3650 ca         1 HKT       0.467200
     17 CBB          5.0530    -1.4430     2.4610 c3         1 HKT       0.179100
     18 FAB         -0.0820     2.1640    -1.8060 f          1 HKT      -0.125900
     19 NAI         -0.4200     0.0060     1.3060 na         1 HKT       0.218400
     20 NAJ         -2.3110    -3.1940     4.1300 nb         1 HKT      -0.601000
     21 NAK          3.6630    -1.3960     1.9880 n7         1 HKT      -0.589200
     22 OAC         -2.7920     0.2070     0.6510 o          1 HKT      -0.567800
     23 OAD         -2.0520     0.8650     2.9460 o          1 HKT      -0.567800
     24 SAA         -1.9970     0.0090     1.8120 sy         1 HKT       1.033300
     25 H1           0.6630     0.0120     3.1990 h4         1 HKT       0.158000
     26 H2           2.0040    -0.0060    -0.8730 ha         1 HKT       0.131000
     27 H3          -1.6860    -1.9520    -0.8030 ha         1 HKT       0.098000
     28 H4          -1.5620    -1.2660     4.3440 h4         1 HKT      -0.001900
     29 H5          -3.2430    -2.2750     0.5440 ha         1 HKT       0.133000
     30 H6           3.2680     0.5050     2.7790 h1         1 HKT       0.008700
     31 H7           3.8390     0.4970     1.1040 h1         1 HKT       0.008700
     32 H8          -1.6970     1.9430    -3.8460 ha         1 HKT       0.118000
     33 H9          -3.1350    -1.9400    -2.7950 ha         1 HKT       0.102000
     34 H10         -3.7240    -4.5470     1.4410 ha         1 HKT       0.121000
     35 H11         -3.1410     0.0020    -4.3100 ha         1 HKT       0.104000
     36 H12         -3.0960    -5.0840     3.7640 h4         1 HKT      -0.018900
     37 H13          5.6950    -0.9490     1.7420 h1         1 HKT      -0.002633
     38 H14          5.3620    -2.4750     2.5720 h1         1 HKT      -0.002633
     39 H15          5.1260    -0.9390     3.4170 h1         1 HKT      -0.002633
     40 H16          3.5920    -1.8740     1.1120 hn         1 HKT       0.252800
@<TRIPOS>BOND
     1     1     2 1   
     2     1     6 2   
     3     1    19 1   
     4     2     7 ar  
     5     2     8 ar  
     6     3     9 ar  
     7     3    10 ar  
     8     3    24 1   
     9     4     5 2   
    10     4    19 1   
    11     4    25 1   
    12     5     6 1   
    13     5    11 1   
    14     6    26 1   
    15     7    12 ar  
    16     7    18 1   
    17     8    13 ar  
    18     8    27 1   
    19     9    20 ar  
    20     9    28 1   
    21    10    14 ar  
    22    10    29 1   
    23    11    21 1   
    24    11    30 1   
    25    11    31 1   
    26    12    15 ar  
    27    12    32 1   
    28    13    15 ar  
    29    13    33 1   
    30    14    16 ar  
    31    14    34 1   
    32    15    35 1   
    33    16    20 ar  
    34    16    36 1   
    35    17    21 1   
    36    17    37 1   
    37    17    38 1   
    38    17    39 1   
    39    19    24 1   
    40    21    40 1   
    41    22    24 2   
    42    23    24 2   
@<TRIPOS>SUBSTRUCTURE
     1 HKT         1 TEMP              0 ****  ****    0 ROOT
