@<TRIPOS>MOLECULE
molecule
   40    42     1     0     0
SMALL
bcc


@<TRIPOS>ATOM
      1 CAL          0.0000     0.0000     0.0000 cc         1 HKT      -0.053300
      2 CAM         -0.8700     0.0010    -1.1950 ca         1 HKT      -0.057000
      3 CAN         -2.3610    -1.6130     2.3940 ca         1 HKT      -0.446800
      4 CAO          0.6760     0.0090     2.1160 cc         1 HKT      -0.109300
      5 CAP          1.7820     0.0000     1.3400 cd         1 HKT      -0.138300
      6 CAQ          1.3630     0.0000     0.0000 cd         1 HKT      -0.144000
      7 CAR         -0.8740     1.0990    -2.0600 ca         1 HKT       0.163900
      8 CAS         -1.6880    -1.0960    -1.4670 ca         1 HKT      -0.069000
      9 CAT         -2.0420    -1.9820     3.6870 ca         1 HKT       0.525200
     10 CAU         -2.9780    -2.5350     1.5620 ca         1 HKT       0.008000
     11 CAV          3.2080    -0.0080     1.8260 c3         1 HKT       0.229100
     12 CAW         -1.6910     1.0920    -3.1750 ca         1 HKT      -0.167000
     13 CAX         -2.4980    -1.0890    -2.5840 ca         1 HKT      -0.140000
     14 CAY         -3.2450    -3.8000     2.0630 ca         1 HKT      -0.277300
     15 CAZ         -2.5030     0.0020    -3.4340 ca         1 HKT      -0.089000
     16 CBA         -2.8910    -4.0980     3.3650 ca         1 HKT       0.479200
     17 CBB          5.0530    -1.4430     2.4610 c3         1 HKT       0.146100
     18 FAB         -0.0820     2.1640    -1.8060 f          1 HKT      -0.133900
     19 NAI         -0.4200     0.0060     1.3060 na         1 HKT      -0.198600
     20 NAJ         -2.3110    -3.1940     4.1300 nb         1 HKT      -0.699000
     21 NAK          3.6630    -1.3960     1.9880 n7         1 HKT      -0.819200
     22 OAC         -2.7920     0.2070     0.6510 o          1 HKT      -0.605300
     23 OAD         -2.0520     0.8650     2.9460 o          1 HKT      -0.605300
     24 SAA         -1.9970     0.0090     1.8120 sy         1 HKT       1.407300
     25 H1           0.6630     0.0120     3.1990 h4         1 HKT       0.187000
     26 H2           2.0040    -0.0060    -0.8730 ha         1 HKT       0.158000
     27 H3          -1.6860    -1.9520    -0.8030 ha         1 HKT       0.127000
     28 H4          -1.5620    -1.2660     4.3440 h4         1 HKT       0.042100
     29 H5          -3.2430    -2.2750     0.5440 ha         1 HKT       0.160000
     30 H6           3.2680     0.5050     2.7790 h1         1 HKT       0.040200
     31 H7           3.8390     0.4970     1.1040 h1         1 HKT       0.040200
     32 H8          -1.6970     1.9430    -3.8460 ha         1 HKT       0.147000
     33 H9          -3.1350    -1.9400    -2.7950 ha         1 HKT       0.133000
     34 H10         -3.7240    -4.5470     1.4410 ha         1 HKT       0.147000
     35 H11         -3.1410     0.0020    -4.3100 ha         1 HKT       0.136000
     36 H12         -3.0960    -5.0840     3.7640 h4         1 HKT       0.030100
     37 H13          5.6950    -0.9490     1.7420 h1         1 HKT       0.031033
     38 H14          5.3620    -2.4750     2.5720 h1         1 HKT       0.031033
     39 H15          5.1260    -0.9390     3.4170 h1         1 HKT       0.031033
     40 H16          3.5920    -1.8740     1.1120 hn         1 HKT       0.354800
@<TRIPOS>BOND
     1    16    20 ar
     2    16    14 ar
     3    20     9 ar
     4    14    10 ar
     5     9     3 ar
     6    10     3 ar
     7     3    24 1
     8    15    12 ar
     9    15    13 ar
    10    12     7 ar
    11    13     8 ar
    12     7    18 1
    13     7     2 ar
    14    24    23 2
    15    24    22 2
    16    24    19 1
    17     8     2 ar
    18     2     1 1
    19    19     1 1
    20    19     4 1
    21     1     6 2
    22     4     5 2
    23     6     5 1
    24     5    11 1
    25    11    21 1
    26    21    17 1
    27     4    25 1
    28     6    26 1
    29     8    27 1
    30     9    28 1
    31    10    29 1
    32    11    30 1
    33    11    31 1
    34    12    32 1
    35    13    33 1
    36    14    34 1
    37    15    35 1
    38    16    36 1
    39    17    37 1
    40    17    38 1
    41    17    39 1
    42    21    40 1
@<TRIPOS>SUBSTRUCTURE
     1 HKT         1 TEMP              0 ****  ****    0 ROOT
