@<TRIPOS>MOLECULE
molecule
   14    13     1     0     0
SMALL
bcc


@<TRIPOS>ATOM
      1 O4           0.0000     0.0000     0.0000 o          1 HKV      -0.852300
      2 C5           1.3560     0.0000     0.0000 c          1 HKV       0.891600
      3 O3           2.0300     0.0000     1.0210 o          1 HKV      -0.852300
      4 C4           1.9340     0.0160    -1.3910 c3         1 HKV      -0.172400
      5 C3           3.4530    -0.0600    -1.3490 c3         1 HKV      -0.161400
      6 C2           4.0550    -0.1030    -2.7320 c          1 HKV       0.451100
      7 O5           3.4360    -0.1000    -3.7850 o          1 HKV      -0.487100
      8 C1           5.5570    -0.1470    -2.7920 c          1 HKV       0.454900
      9 O2           6.1240    -0.1780    -3.8700 o          1 HKV      -0.504100
     10 HA           1.6370     0.9310    -1.8900 hc         1 HKV       0.045200
     11 H3C1         3.8350     0.8080    -0.8260 hc         1 HKV       0.072200
     12 H3C2         3.7460    -0.9530    -0.8100 hc         1 HKV       0.072200
     13 H1           6.1350    -0.1510    -1.8760 h4         1 HKV      -0.002800
     14 H41          1.5500    -0.8320    -1.9450 hc         1 HKV       0.045200
@<TRIPOS>BOND
     1     1     2 1
     2     2     3 1
     3     2     4 1
     4     4    14 1
     5     4     5 1
     6     4    10 1
     7     5     6 1
     8     5    11 1
     9     5    12 1
    10     6     7 2
    11     6     8 1
    12     8     9 2
    13     8    13 1
@<TRIPOS>SUBSTRUCTURE
     1 HKV         1 TEMP              0 ****  ****    0 ROOT
