@<TRIPOS>MOLECULE
HKV
   14    13     1     0     0
SMALL
bcc


@<TRIPOS>ATOM
      1 O4          0.6020   -0.3240    0.4590 o         1 HKV     -0.838800
      2 C5          1.7960   -0.0930    0.1230 c         1 HKV      0.911600
      3 O3          2.7260    0.1960    0.9290 o         1 HKV     -0.838800
      4 C4          2.1400   -0.2060   -1.3790 c3        1 HKV     -0.196400
      5 C3          3.2460    0.7530   -1.7660 c3        1 HKV     -0.173400
      6 C2          4.0600    0.2210   -2.9000 c         1 HKV      0.474100
      7 O5          3.9310    0.5580   -4.0820 o         1 HKV     -0.541100
      8 C1          5.0640   -0.8280   -2.4980 c         1 HKV      0.483900
      9 O2          6.2810   -0.6700   -2.5840 o         1 HKV     -0.523100
     10 HA          2.4490   -1.2650   -1.5640 hc        1 HKV      0.028700
     11 H3C1        3.9090    0.9090   -0.8660 hc        1 HKV      0.083200
     12 H3C2        2.8090    1.7440   -2.0500 hc        1 HKV      0.083200
     13 H1          4.6150   -1.7600   -2.0850 h4        1 HKV      0.019200
     14 H41         1.2210   -0.0060   -1.9830 hc        1 HKV      0.028700
@<TRIPOS>BOND
     1    1    2 1   
     2    2    3 1   
     3    2    4 1   
     4    4    5 1   
     5    4   10 1   
     6    4   14 1   
     7    5    6 1   
     8    5   11 1   
     9    5   12 1   
    10    6    7 2   
    11    6    8 1   
    12    8    9 2   
    13    8   13 1   
@<TRIPOS>SUBSTRUCTURE
     1 HKV         1 TEMP              0 ****  ****    0 ROOT
