@<TRIPOS>MOLECULE
molecule
   46    48     1     0     0
SMALL
bcc


@<TRIPOS>ATOM
      1 OAA          0.0000     0.0000     0.0000 o          1 HKX      -0.492500
      2 CAB          1.9740     0.1600    -3.7040 c3         1 HKX       0.186100
      3 OAC         -0.9190     0.6310    -1.4240 o          1 HKX      -0.574300
      4 NAD          1.8980     0.0000     1.1640 ns         1 HKX      -0.535500
      5 CAE          1.2210     0.0000     0.0000 c          1 HKX       0.646700
      6 CAF          1.9280    -0.0010    -1.2160 cc         1 HKX       0.103800
      7 NAG          1.2350     0.0010    -2.4490 nh         1 HKX      -0.650300
      8 SAH         -0.4100    -0.1790    -2.4750 sy         1 HKX       1.388200
      9 CAI         -0.7600    -1.8470    -2.0310 ca         1 HKX      -0.323500
     10 CAJ         -0.9500    -2.1850    -0.7040 ca         1 HKX      -0.037500
     11 CAK         -1.2250    -3.4930    -0.3550 ca         1 HKX      -0.145500
     12 CAM          3.2430    -0.0000     1.1750 c          1 HKX       0.820500
     13 NAN          3.9450    -0.0000     0.0260 n          1 HKX      -0.372000
     14 CAO          3.2970    -0.0000    -1.1870 cd         1 HKX      -0.002400
     15 OAP         -0.8090    -0.0320    -3.8310 o          1 HKX      -0.574300
     16 CAQ         -0.8500    -2.8190    -3.0110 ca         1 HKX      -0.037500
     17 CAR         -1.1250    -4.1280    -2.6620 ca         1 HKX      -0.145500
     18 CAS         -1.3100    -4.4660    -1.3340 ca         1 HKX      -0.055000
     19 CAT          5.4100    -0.0010     0.0690 c3         1 HKX       0.151300
     20 NAU          4.0150     0.0000    -2.3610 nz         1 HKX      -0.688400
     21 CAV          6.1780    -2.0720    -1.1060 ca         1 HKX      -0.125000
     22 CAW          5.9120    -1.4220     0.0830 ca         1 HKX      -0.153300
     23 CAX          6.1090    -2.0720     1.2870 ca         1 HKX      -0.072000
     24 CAY          6.6370    -3.3770    -1.0930 ca         1 HKX      -0.014900
     25 CAZ          6.8340    -4.0290     0.1110 ca         1 HKX      -0.069000
     26 CBA          6.5690    -3.3760     1.3000 ca         1 HKX      -0.105000
     27 Br1          7.0000    -4.2690    -2.7210 br         1 HKX      -0.058100
     28 HAB          1.2750     0.2290    -4.5280 h1         1 HKX       0.061700
     29 HABA         2.6240    -0.6950    -3.8510 h1         1 HKX       0.061700
     30 HABB         2.5710     1.0630    -3.6590 h1         1 HKX       0.061700
     31 HNAD         1.3960     0.0010     2.0300 hn         1 HKX       0.398500
     32 HAJ         -0.8830    -1.4230     0.0630 ha         1 HKX       0.163500
     33 HAK         -1.3720    -3.7570     0.6850 ha         1 HKX       0.148500
     34 HAQ         -0.7050    -2.5550    -4.0510 ha         1 HKX       0.163500
     35 HAR         -1.1930    -4.8900    -3.4290 ha         1 HKX       0.148500
     36 HAS         -1.5250    -5.4920    -1.0610 ha         1 HKX       0.148000
     37 HAT          5.7450     0.5100     0.9630 h1         1 HKX       0.083700
     38 HATA         5.7970     0.5100    -0.8050 h1         1 HKX       0.083700
     39 HNAU         3.7940    -0.8220    -2.8880 hn         1 HKX       0.473133
     40 HNAA         3.7800     0.8130    -2.8960 hn         1 HKX       0.473133
     41 HAV          6.0240    -1.5620    -2.0490 ha         1 HKX       0.089000
     42 HAX          5.9010    -1.5610     2.2190 ha         1 HKX       0.168000
     43 HAZ          7.1940    -5.0500     0.1220 ha         1 HKX       0.168000
     44 HBA          6.7230    -3.8860     2.2440 ha         1 HKX       0.164000
     45 OAL          3.8340    -0.0010     2.2370 o          1 HKX      -0.597500
     46 HAU3         4.9940     0.0100    -2.1520 hn         1 HKX       0.473133
@<TRIPOS>BOND
     1     1     5 2
     2     2     7 1
     3     3     8 2
     4     4     5 1
     5     4    12 1
     6     5     6 1
     7     6     7 1
     8     6    14 2
     9     7     8 1
    10     8     9 1
    11     8    15 2
    12     9    10 ar
    13     9    16 ar
    14    10    11 ar
    15    11    18 ar
    16    45    12 2
    17    12    13 1
    18    13    14 1
    19    13    19 1
    20    14    20 1
    21    16    17 ar
    22    17    18 ar
    23    19    22 1
    24    21    22 ar
    25    21    24 ar
    26    22    23 ar
    27    23    26 ar
    28    24    25 ar
    29    24    27 1
    30    25    26 ar
    31     2    28 1
    32     2    29 1
    33     2    30 1
    34     4    31 1
    35    10    32 1
    36    11    33 1
    37    16    34 1
    38    17    35 1
    39    18    36 1
    40    19    37 1
    41    19    38 1
    42    20    39 1
    43    20    40 1
    44    21    41 1
    45    23    42 1
    46    25    43 1
    47    26    44 1
    48    46    20 1
@<TRIPOS>SUBSTRUCTURE
     1 HKX         1 TEMP              0 ****  ****    0 ROOT
