@<TRIPOS>MOLECULE
molecule
   23    24     1     0     0
SMALL
bcc


@<TRIPOS>ATOM
      1 C1           0.0000     0.0000     0.0000 ca         1 HKY      -0.094000
      2 C2           1.3780     0.0000     0.0000 ca         1 HKY      -0.161000
      3 C3           0.0210     0.0040     2.4110 ca         1 HKY      -0.107000
      4 C4          -0.6920     0.0010     1.2120 ca         1 HKY      -0.100600
      5 C5           2.0830     0.0000     1.1960 ca         1 HKY      -0.104300
      6 C6           1.4050     0.0060     2.3980 ca         1 HKY      -0.098300
      7 C7          -2.1690     0.0000     1.2250 c          1 HKY       0.883200
      8 C8           2.1330     0.0190     3.7180 c3         1 HKY      -0.021100
      9 C9           3.5900    -0.0120     1.1360 c3         1 HKY       0.211100
     10 C10          3.5890    -0.4010     3.5150 c3         1 HKY       0.153800
     11 N11          4.1580     0.4030     2.4210 n7         1 HKY      -0.811200
     12 O12         -2.7670     0.0010     2.2830 o          1 HKY      -0.839300
     13 O13         -2.8540    -0.0030     0.0650 o          1 HKY      -0.839300
     14 H1          -0.5440    -0.0020    -0.9370 ha         1 HKY       0.153000
     15 H2           1.9150    -0.0010    -0.9410 ha         1 HKY       0.103000
     16 H3          -0.5100     0.0060     3.3550 ha         1 HKY       0.145000
     17 H91C         3.9210     0.6700     0.3620 h1         1 HKY       0.025700
     18 H92C         3.9290    -1.0150     0.9040 h1         1 HKY       0.025700
     19 H81C         2.1140     1.0260     4.1150 hc         1 HKY       0.049200
     20 H82C         1.6560    -0.6910     4.3840 hc         1 HKY       0.049200
     21 H101         3.6320    -1.4520     3.2530 h1         1 HKY       0.021700
     22 H102         4.1490    -0.2240     4.4250 h1         1 HKY       0.021700
     23 H11          5.1520     0.2840     2.4010 hn         1 HKY       0.332800
@<TRIPOS>BOND
     1     1     2 ar
     2     1     4 ar
     3     2     5 ar
     4     3     4 ar
     5     3     6 ar
     6     4     7 1
     7     5     6 ar
     8     5     9 1
     9     6     8 1
    10     7    12 1
    11     7    13 1
    12     8    10 1
    13     9    11 1
    14    10    11 1
    15     1    14 1
    16     2    15 1
    17     3    16 1
    18     9    17 1
    19     9    18 1
    20     8    19 1
    21     8    20 1
    22    10    21 1
    23    10    22 1
    24    11    23 1
@<TRIPOS>SUBSTRUCTURE
     1 HKY         1 TEMP              0 ****  ****    0 ROOT
