@<TRIPOS>MOLECULE
HKY
   23    24     1     0     0
SMALL
bcc


@<TRIPOS>ATOM
      1 C1           0.0000     0.0000     0.0000 ca         1 HKY      -0.067000
      2 C2           1.3780     0.0000     0.0000 ca         1 HKY      -0.142000
      3 C3           0.0210     0.0040     2.4110 ca         1 HKY      -0.082000
      4 C4          -0.6920     0.0010     1.2120 ca         1 HKY      -0.101600
      5 C5           2.0830     0.0000     1.1960 ca         1 HKY      -0.116300
      6 C6           1.4050     0.0060     2.3980 ca         1 HKY      -0.111300
      7 C7          -2.1690     0.0000     1.2250 c          1 HKY       0.975200
      8 C8           2.1330     0.0190     3.7180 c3         1 HKY       0.045900
      9 C9           3.5900    -0.0120     1.1360 c3         1 HKY       0.217100
     10 C10          3.5890    -0.4010     3.5150 c3         1 HKY       0.141800
     11 N11          4.1580     0.4030     2.4210 n7         1 HKY      -0.577200
     12 O12         -2.7670     0.0010     2.2830 o          1 HKY      -0.887300
     13 O13         -2.8540    -0.0030     0.0650 o          1 HKY      -0.887300
     14 H1          -0.5440    -0.0020    -0.9370 ha         1 HKY       0.127000
     15 H2           1.9150    -0.0010    -0.9410 ha         1 HKY       0.084000
     16 H3          -0.5100     0.0060     3.3550 ha         1 HKY       0.122000
     17 H91C         3.9210     0.6700     0.3620 h1         1 HKY      -0.002300
     18 H92C         3.9290    -1.0150     0.9040 h1         1 HKY      -0.002300
     19 H81C         2.1140     1.0260     4.1150 hc         1 HKY       0.018200
     20 H82C         1.6560    -0.6910     4.3840 hc         1 HKY       0.018200
     21 H101         3.6320    -1.4520     3.2530 h1         1 HKY      -0.003800
     22 H102         4.1490    -0.2240     4.4250 h1         1 HKY      -0.003800
     23 H11          5.1520     0.2840     2.4010 hn         1 HKY       0.232800
@<TRIPOS>BOND
     1     1     2 ar  
     2     1     4 ar  
     3     1    14 1   
     4     2     5 ar  
     5     2    15 1   
     6     3     4 ar  
     7     3     6 ar  
     8     3    16 1   
     9     4     7 1   
    10     5     6 ar  
    11     5     9 1   
    12     6     8 1   
    13     7    12 1   
    14     7    13 1   
    15     8    10 1   
    16     8    19 1   
    17     8    20 1   
    18     9    11 1   
    19     9    17 1   
    20     9    18 1   
    21    10    11 1   
    22    10    21 1   
    23    10    22 1   
    24    11    23 1   
@<TRIPOS>SUBSTRUCTURE
     1 HKY         1 TEMP              0 ****  ****    0 ROOT
