@<TRIPOS>MOLECULE
molecule
   43    43     1     0     0
SMALL
bcc


@<TRIPOS>ATOM
      1 N            0.0000     0.0000     0.0000 ns         1 HL0      -0.580900
      2 C1         -10.3430     2.9330    -6.2830 c3         1 HL0      -0.092100
      3 O1          -0.0680     0.9380    -2.0090 o          1 HL0      -0.585100
      4 C2          -8.8130     2.9330    -6.2840 c3         1 HL0      -0.084400
      5 O2           2.1500    -2.1760     0.4350 os         1 HL0      -0.407900
      6 C3          -8.3030     2.3240    -4.9760 c3         1 HL0      -0.081400
      7 O3           2.2530    -1.5110    -1.7310 o          1 HL0      -0.529500
      8 C4          -6.7720     2.3240    -4.9760 c3         1 HL0      -0.082400
      9 C5          -6.2630     1.7140    -3.6700 c3         1 HL0      -0.082400
     10 C6          -4.7320     1.7130    -3.6700 c3         1 HL0      -0.080400
     11 C7          -4.2210     1.1040    -2.3630 c3         1 HL0      -0.085400
     12 C8          -2.6920     1.1040    -2.3640 c3         1 HL0      -0.066400
     13 C9          -2.1810     0.4940    -1.0570 c3         1 HL0      -0.155400
     14 C10         -0.6740     0.4940    -1.0570 c          1 HL0       0.657100
     15 C11          1.4650     0.0000     0.0000 c3         1 HL0       0.003700
     16 C12          2.0120     0.0000     1.4470 c3         1 HL0      -0.138400
     17 C13          2.2070    -1.5050     1.7230 c3         1 HL0       0.133400
     18 C14          2.0010    -1.3000    -0.5690 c          1 HL0       0.719600
     19 HN          -0.5000    -0.3520     0.7920 hn         1 HL0       0.317500
     20 H1         -10.7050     3.3640    -7.2080 hc         1 HL0       0.032367
     21 H1A        -10.7030     3.5200    -5.4460 hc         1 HL0       0.032367
     22 H1B        -10.7040     1.9160    -6.1920 hc         1 HL0       0.032367
     23 H2          -8.4530     2.3460    -7.1200 hc         1 HL0       0.040700
     24 H2A         -8.4520     3.9500    -6.3740 hc         1 HL0       0.040700
     25 H3          -8.6630     2.9100    -4.1400 hc         1 HL0       0.040700
     26 H3A         -8.6640     1.3070    -4.8860 hc         1 HL0       0.040700
     27 H4          -6.4110     1.7380    -5.8130 hc         1 HL0       0.042200
     28 H4A         -6.4110     3.3410    -5.0650 hc         1 HL0       0.042200
     29 H5          -6.6230     2.2990    -2.8330 hc         1 HL0       0.040200
     30 H5A         -6.6240     0.6960    -3.5810 hc         1 HL0       0.040200
     31 H6          -4.3710     2.7310    -3.7590 hc         1 HL0       0.044700
     32 H6A         -4.3710     1.1270    -4.5070 hc         1 HL0       0.044700
     33 H7          -4.5820     1.6900    -1.5260 hc         1 HL0       0.038700
     34 H7A         -4.5820     0.0870    -2.2740 hc         1 HL0       0.038700
     35 H8          -2.3310     2.1210    -2.4520 hc         1 HL0       0.060700
     36 H8A         -2.3310     0.5180    -3.2010 hc         1 HL0       0.060700
     37 H9          -2.5420    -0.5240    -0.9680 hc         1 HL0       0.060200
     38 H9A         -2.5420     1.0790    -0.2200 hc         1 HL0       0.060200
     39 H11          1.8540     0.8460    -0.5540 h1         1 HL0       0.116700
     40 H12          1.2880     0.4250     2.1310 hc         1 HL0       0.072700
     41 H12A         2.9580     0.5250     1.5000 hc         1 HL0       0.072700
     42 H13          3.1720    -1.6740     2.1850 h1         1 HL0       0.063700
     43 H13A         1.4130    -1.8690     2.3650 h1         1 HL0       0.063700
@<TRIPOS>BOND
     1     1    14 1
     2     1    15 1
     3     2     4 1
     4     3    14 2
     5     4     6 1
     6     5    17 1
     7     5    18 1
     8     6     8 1
     9     7    18 2
    10     8     9 1
    11     9    10 1
    12    10    11 1
    13    11    12 1
    14    12    13 1
    15    13    14 1
    16    15    16 1
    17    15    18 1
    18    16    17 1
    19     1    19 1
    20     2    20 1
    21     2    21 1
    22     2    22 1
    23     4    23 1
    24     4    24 1
    25     6    25 1
    26     6    26 1
    27     8    27 1
    28     8    28 1
    29     9    29 1
    30     9    30 1
    31    10    31 1
    32    10    32 1
    33    11    33 1
    34    11    34 1
    35    12    35 1
    36    12    36 1
    37    13    37 1
    38    13    38 1
    39    15    39 1
    40    16    40 1
    41    16    41 1
    42    17    42 1
    43    17    43 1
@<TRIPOS>SUBSTRUCTURE
     1 HL0         1 TEMP              0 ****  ****    0 ROOT
