@<TRIPOS>MOLECULE
molecule
   47    50     1     0     0
SMALL
bcc


@<TRIPOS>ATOM
      1 C1           0.0000     0.0000     0.0000 ca         1 HL1       0.100900
      2 C2           1.3850     0.0000     0.0000 ca         1 HL1      -0.178300
      3 C3           2.0770     0.0000     1.1960 ca         1 HL1      -0.083000
      4 C4           1.3860     0.0000     2.3960 ca         1 HL1       0.110900
      5 C5          -0.0000    -0.0000     2.3970 ca         1 HL1       0.155900
      6 C6          -0.6920    -0.0010     1.1990 ca         1 HL1      -0.168000
      7 F7          -0.6750     0.0050    -1.1700 f          1 HL1      -0.151900
      8 F8          -0.6760    -0.0020     3.5680 f          1 HL1      -0.089900
      9 F9           2.0630    -0.0000     3.5660 f          1 HL1      -0.093900
     10 C10          2.1380     0.0000    -1.3050 c3         1 HL1       0.206400
     11 O11          3.4390     0.5560    -1.1100 os         1 HL1      -0.297900
     12 C12          4.3470     0.4280    -2.1150 ca         1 HL1       0.135100
     13 C13          4.1850    -0.4810    -3.1170 ca         1 HL1      -0.179300
     14 C14          2.9840    -1.3910    -3.1780 c3         1 HL1      -0.036100
     15 C15          2.3010    -1.4400    -1.8090 c3         1 HL1       0.060500
     16 N16          0.9820    -2.0740    -1.9360 nz         1 HL1      -0.807600
     17 C17          5.1580    -0.5800    -4.1320 ca         1 HL1       0.012000
     18 C20          6.2910     0.2680    -4.1020 ca         1 HL1      -0.042000
     19 C21          6.4250     1.1980    -3.0570 ca         1 HL1      -0.053000
     20 C22          5.4720     1.2680    -2.0930 ca         1 HL1      -0.144000
     21 C23          5.0170    -1.5110    -5.1760 ca         1 HL1      -0.242000
     22 C24          5.9740    -1.5870    -6.1450 ca         1 HL1       0.175100
     23 C25          7.0970    -0.7480    -6.1150 ca         1 HL1       0.145100
     24 C26          7.2600     0.1660    -5.1150 ca         1 HL1      -0.187000
     25 O27          5.8380    -2.4880    -7.1540 os         1 HL1      -0.294900
     26 C28          4.6730    -3.3160    -7.1300 c3         1 HL1       0.126700
     27 O30          8.0350    -0.8450    -7.0940 os         1 HL1      -0.302900
     28 C31          9.1560     0.0360    -7.0090 c3         1 HL1       0.122700
     29 H1           3.1600     0.0000     1.1950 ha         1 HL1       0.190000
     30 H2          -1.7750    -0.0010     1.1990 ha         1 HL1       0.188000
     31 H3           1.6010     0.5840    -2.0430 h1         1 HL1       0.085700
     32 H4           3.3030    -2.3880    -3.4550 hc         1 HL1       0.071700
     33 H5           2.2850    -1.0130    -3.9140 hc         1 HL1       0.071700
     34 H6           2.9160    -2.0000    -1.1160 hx         1 HL1       0.130700
     35 H7           1.0730    -2.9370    -2.4350 hn         1 HL1       0.458133
     36 H8           0.6090    -2.2540    -1.0240 hn         1 HL1       0.458133
     37 H10          7.3350     1.7790    -2.9620 ha         1 HL1       0.156000
     38 H11          5.5810     1.9860    -1.2900 ha         1 HL1       0.157000
     39 H12          4.1540    -2.1650    -5.2100 ha         1 HL1       0.132000
     40 H13          8.1320     0.8100    -5.1020 ha         1 HL1       0.160000
     41 H14          3.7870    -2.6940    -7.1690 h1         1 HL1       0.043367
     42 H15          4.6640    -3.9010    -6.2190 h1         1 HL1       0.043367
     43 H16          4.6850    -3.9800    -7.9860 h1         1 HL1       0.043367
     44 H17          9.6850    -0.1410    -6.0800 h1         1 HL1       0.050033
     45 H18          9.8220    -0.1450    -7.8440 h1         1 HL1       0.050033
     46 H19          8.8110     1.0630    -7.0380 h1         1 HL1       0.050033
     47 H163         0.3590    -1.4570    -2.4190 hn         1 HL1       0.458133
@<TRIPOS>BOND
     1    28    27 1
     2    27    23 1
     3    25    26 1
     4    25    22 1
     5    23    22 ar
     6    23    24 ar
     7    22    21 ar
     8    24    18 ar
     9    21    17 ar
    10    18    17 ar
    11    18    19 ar
    12    17    13 ar
    13    19    20 ar
    14    13    12 ar
    15    13    14 1
    16    20    12 ar
    17    12    11 1
    18    14    15 1
    19    11    10 1
    20    15    10 1
    21    15    16 1
    22    10     2 1
    23     2     3 ar
    24     2     1 ar
    25     7     1 1
    26     3     4 ar
    27     1     6 ar
    28     4     9 1
    29     4     5 ar
    30     6     5 ar
    31     5     8 1
    32     3    29 1
    33     6    30 1
    34    10    31 1
    35    14    32 1
    36    14    33 1
    37    15    34 1
    38    16    35 1
    39    16    36 1
    40    19    37 1
    41    20    38 1
    42    21    39 1
    43    24    40 1
    44    26    41 1
    45    26    42 1
    46    26    43 1
    47    28    44 1
    48    28    45 1
    49    28    46 1
    50    47    16 1
@<TRIPOS>SUBSTRUCTURE
     1 HL1         1 TEMP              0 ****  ****    0 ROOT
