@<TRIPOS>MOLECULE
molecule
   25    25     1     0     0
SMALL
bcc


@<TRIPOS>ATOM
      1 C1           0.0000     0.0000     0.0000 c3         1 HL4       0.005700
      2 C2           1.5140     0.0000     0.0000 c          1 HL4       0.714600
      3 C4           0.9300    -0.4880     2.1630 c3         1 HL4       0.134400
      4 C5          -0.3950    -0.0600     1.4920 c3         1 HL4      -0.136400
      5 O6           2.2090     0.0010    -0.9890 o          1 HL4      -0.529500
      6 N7          -0.5090    -1.1750    -0.7110 ns         1 HL4      -0.583900
      7 C8          -0.6760    -1.1350    -2.0480 c          1 HL4       0.659100
      8 O9          -0.4030    -0.1260    -2.6620 o          1 HL4      -0.583100
      9 C10         -1.2000    -2.3450    -2.7790 c3         1 HL4      -0.154400
     10 C11         -1.2930    -2.0360    -4.2740 c3         1 HL4      -0.069400
     11 C13         -1.8250    -3.2620    -5.0160 c3         1 HL4      -0.096100
     12 OAP          1.9670     0.0000     1.2610 os         1 HL4      -0.403900
     13 H1          -0.3740     0.9110    -0.4500 h1         1 HL4       0.114700
     14 H4           1.0270    -0.0220     3.1360 h1         1 HL4       0.066200
     15 H4A          0.9800    -1.5670     2.2460 h1         1 HL4       0.066200
     16 H5          -1.1660    -0.8040     1.6550 hc         1 HL4       0.071200
     17 H5A         -0.7080     0.9140     1.8460 hc         1 HL4       0.071200
     18 HN7         -0.7420    -2.0060    -0.2030 hn         1 HL4       0.315500
     19 H10         -0.5270    -3.1800    -2.6240 hc         1 HL4       0.058700
     20 H10A        -2.1820    -2.5980    -2.4010 hc         1 HL4       0.058700
     21 H11         -1.9650    -1.2000    -4.4290 hc         1 HL4       0.059700
     22 H11A        -0.3100    -1.7830    -4.6520 hc         1 HL4       0.059700
     23 H13         -1.8910    -3.0430    -6.0750 hc         1 HL4       0.034033
     24 H13A        -1.1530    -4.0980    -4.8610 hc         1 HL4       0.034033
     25 H13B        -2.8090    -3.5150    -4.6380 hc         1 HL4       0.034033
@<TRIPOS>BOND
     1     1     2 1
     2     1     4 1
     3     1     6 1
     4     2     5 2
     5     2    12 1
     6     3     4 1
     7     3    12 1
     8     6     7 1
     9     7     8 2
    10     7     9 1
    11     9    10 1
    12    10    11 1
    13     1    13 1
    14     3    14 1
    15     3    15 1
    16     4    16 1
    17     4    17 1
    18     6    18 1
    19     9    19 1
    20     9    20 1
    21    10    21 1
    22    10    22 1
    23    11    23 1
    24    11    24 1
    25    11    25 1
@<TRIPOS>SUBSTRUCTURE
     1 HL4         1 TEMP              0 ****  ****    0 ROOT
