@<TRIPOS>MOLECULE
HL6
   31    31     1     0     0
SMALL
bcc


@<TRIPOS>ATOM
      1 N            0.0000     0.0000     0.0000 ns         1 HL6      -0.189900
      2 C1           1.9960    -1.2900    -0.5880 c          1 HL6       0.774600
      3 O1           1.5860    -1.8100    -1.6000 o          1 HL6      -0.580500
      4 C2           3.2520    -0.9060     1.3140 c3         1 HL6       0.220400
      5 O2           2.9880    -1.7670     0.1720 os         1 HL6      -0.388900
      6 C3           2.0070     0.0000     1.4490 c3         1 HL6      -0.074400
      7 O3          -0.0670     0.7940    -2.0700 o          1 HL6      -0.625100
      8 C4           1.4650     0.0000     0.0000 c3         1 HL6      -0.089300
      9 C5          -0.6740     0.4180    -1.0900 c          1 HL6       0.577100
     10 C6          -2.1810     0.4180    -1.0900 c3         1 HL6      -0.093400
     11 C7          -2.6910     0.9340    -2.4370 c3         1 HL6      -0.016400
     12 C8          -4.2210     0.9350    -2.4370 c3         1 HL6      -0.032400
     13 C9          -4.7310     1.4510    -3.7840 c3         1 HL6      -0.026400
     14 C10         -6.2610     1.4510    -3.7840 c3         1 HL6       0.005900
     15 HN          -0.5000    -0.2910     0.8170 hn         1 HL6       0.176500
     16 H2           3.3780    -1.5020     2.2090 h1         1 HL6       0.020700
     17 H2A          4.1340    -0.3040     1.1300 h1         1 HL6       0.020700
     18 H3           2.2890     1.0000     1.7550 hc         1 HL6       0.035200
     19 H3A          1.2860    -0.4340     2.1300 hc         1 HL6       0.035200
     20 H4           1.8510     0.8510    -0.5480 h1         1 HL6       0.082700
     21 H6          -2.5420     1.0610    -0.2970 hc         1 HL6       0.026700
     22 H6A         -2.5420    -0.5910    -0.9300 hc         1 HL6       0.026700
     23 H7          -2.3300     0.2910    -3.2310 hc         1 HL6       0.031700
     24 H7A         -2.3300     1.9430    -2.5980 hc         1 HL6       0.031700
     25 H8          -4.5820     1.5780    -1.6430 hc         1 HL6       0.011200
     26 H8A         -4.5820    -0.0740    -2.2770 hc         1 HL6       0.011200
     27 H9          -4.3690     0.8090    -4.5780 hc         1 HL6       0.014700
     28 H9A         -4.3700     2.4600    -3.9440 hc         1 HL6       0.014700
     29 H10         -6.6210     1.8170    -4.7380 hc         1 HL6      -0.000633
     30 H10A        -6.6220     0.4420    -3.6250 hc         1 HL6      -0.000633
     31 H10B        -6.6220     2.0940    -2.9910 hc         1 HL6      -0.000633
@<TRIPOS>BOND
     1     1     8 1   
     2     1     9 1   
     3     1    15 1   
     4     2     3 2   
     5     2     5 1   
     6     2     8 1   
     7     4     5 1   
     8     4     6 1   
     9     4    16 1   
    10     4    17 1   
    11     6     8 1   
    12     6    18 1   
    13     6    19 1   
    14     7     9 2   
    15     8    20 1   
    16     9    10 1   
    17    10    11 1   
    18    10    21 1   
    19    10    22 1   
    20    11    12 1   
    21    11    23 1   
    22    11    24 1   
    23    12    13 1   
    24    12    25 1   
    25    12    26 1   
    26    13    14 1   
    27    13    27 1   
    28    13    28 1   
    29    14    29 1   
    30    14    30 1   
    31    14    31 1   
@<TRIPOS>SUBSTRUCTURE
     1 HL6         1 TEMP              0 ****  ****    0 ROOT
