@<TRIPOS>MOLECULE
molecule
   31    31     1     0     0
SMALL
bcc


@<TRIPOS>ATOM
      1 N            0.0000     0.0000     0.0000 ns         1 HL6      -0.578900
      2 C1           1.9960    -1.2900    -0.5880 c          1 HL6       0.714600
      3 O1           1.5860    -1.8100    -1.6000 o          1 HL6      -0.536500
      4 C2           3.2520    -0.9060     1.3140 c3         1 HL6       0.136400
      5 O2           2.9880    -1.7670     0.1720 os         1 HL6      -0.400900
      6 C3           2.0070     0.0000     1.4490 c3         1 HL6      -0.135400
      7 O3          -0.0670     0.7940    -2.0700 o          1 HL6      -0.588100
      8 C4           1.4650     0.0000     0.0000 c3         1 HL6       0.005700
      9 C5          -0.6740     0.4180    -1.0900 c          1 HL6       0.662100
     10 C6          -2.1810     0.4180    -1.0900 c3         1 HL6      -0.154400
     11 C7          -2.6910     0.9340    -2.4370 c3         1 HL6      -0.067400
     12 C8          -4.2210     0.9350    -2.4370 c3         1 HL6      -0.085400
     13 C9          -4.7310     1.4510    -3.7840 c3         1 HL6      -0.082400
     14 C10         -6.2610     1.4510    -3.7840 c3         1 HL6      -0.092100
     15 HN          -0.5000    -0.2910     0.8170 hn         1 HL6       0.317500
     16 H2           3.3780    -1.5020     2.2090 h1         1 HL6       0.067200
     17 H2A          4.1340    -0.3040     1.1300 h1         1 HL6       0.067200
     18 H3           2.2890     1.0000     1.7550 hc         1 HL6       0.068700
     19 H3A          1.2860    -0.4340     2.1300 hc         1 HL6       0.068700
     20 H4           1.8510     0.8510    -0.5480 h1         1 HL6       0.112700
     21 H6          -2.5420     1.0610    -0.2970 hc         1 HL6       0.059700
     22 H6A         -2.5420    -0.5910    -0.9300 hc         1 HL6       0.059700
     23 H7          -2.3300     0.2910    -3.2310 hc         1 HL6       0.060200
     24 H7A         -2.3300     1.9430    -2.5980 hc         1 HL6       0.060200
     25 H8          -4.5820     1.5780    -1.6430 hc         1 HL6       0.038200
     26 H8A         -4.5820    -0.0740    -2.2770 hc         1 HL6       0.038200
     27 H9          -4.3690     0.8090    -4.5780 hc         1 HL6       0.043700
     28 H9A         -4.3700     2.4600    -3.9440 hc         1 HL6       0.043700
     29 H10         -6.6210     1.8170    -4.7380 hc         1 HL6       0.032700
     30 H10A        -6.6220     0.4420    -3.6250 hc         1 HL6       0.032700
     31 H10B        -6.6220     2.0940    -2.9910 hc         1 HL6       0.032700
@<TRIPOS>BOND
     1     1     8 1
     2     1     9 1
     3     2     3 2
     4     2     5 1
     5     2     8 1
     6     4     5 1
     7     4     6 1
     8     6     8 1
     9     7     9 2
    10     9    10 1
    11    10    11 1
    12    11    12 1
    13    12    13 1
    14    13    14 1
    15     1    15 1
    16     4    16 1
    17     4    17 1
    18     6    18 1
    19     6    19 1
    20     8    20 1
    21    10    21 1
    22    10    22 1
    23    11    23 1
    24    11    24 1
    25    12    25 1
    26    12    26 1
    27    13    27 1
    28    13    28 1
    29    14    29 1
    30    14    30 1
    31    14    31 1
@<TRIPOS>SUBSTRUCTURE
     1 HL6         1 TEMP              0 ****  ****    0 ROOT
