@<TRIPOS>MOLECULE
molecule
   36    37     1     0     0
SMALL
bcc


@<TRIPOS>ATOM
      1 N1           0.0000     0.0000     0.0000 ns         1 HLC      -0.576900
      2 C1           1.9960    -1.2890    -0.5880 c          1 HLC       0.715600
      3 O1           1.5880    -1.8090    -1.5990 o          1 HLC      -0.535500
      4 C2           3.2520    -0.9050     1.3140 c3         1 HLC       0.136400
      5 O2           2.9880    -1.7660     0.1730 os         1 HLC      -0.399900
      6 C3           2.0070     0.0000     1.4480 c3         1 HLC      -0.136400
      7 O3          -4.6960     1.4150    -3.6960 os         1 HLC      -0.322900
      8 C4           1.4640     0.0000     0.0000 c3         1 HLC       0.005700
      9 O4          -0.0670     0.7930    -2.0710 o          1 HLC      -0.583100
     10 C5          -0.6740     0.4170    -1.0900 c          1 HLC       0.664100
     11 C6          -2.1810     0.4170    -1.0910 c3         1 HLC      -0.153400
     12 C7          -2.6910     0.9330    -2.4380 c3         1 HLC      -0.067400
     13 C8          -4.2200     0.9320    -2.4380 c3         1 HLC       0.135400
     14 C9          -6.0440     1.4780    -3.8630 ca         1 HLC       0.147100
     15 C10         -6.5750     1.9360    -5.0600 ca         1 HLC      -0.183000
     16 C11         -7.9450     2.0000    -5.2280 ca         1 HLC      -0.083500
     17 C12         -8.7870     1.6060    -4.2030 ca         1 HLC      -0.011600
     18 C13         -8.2590     1.1490    -3.0080 ca         1 HLC      -0.083500
     19 C14         -6.8900     1.0790    -2.8390 ca         1 HLC      -0.183000
     20 H1          -0.5000    -0.2990     0.8140 hn         1 HLC       0.318500
     21 H2           3.3780    -1.5010     2.2100 h1         1 HLC       0.068200
     22 H3           4.1330    -0.3030     1.1300 h1         1 HLC       0.068200
     23 H4           1.2860    -0.4340     2.1310 hc         1 HLC       0.069200
     24 H5           2.2890     1.0000     1.7550 hc         1 HLC       0.069200
     25 H6           1.8500     0.8520    -0.5470 h1         1 HLC       0.113700
     26 H7          -2.5420    -0.5910    -0.9310 hc         1 HLC       0.061200
     27 H8          -2.5420     1.0600    -0.2980 hc         1 HLC       0.061200
     28 H9          -2.3290     0.2910    -3.2310 hc         1 HLC       0.076200
     29 H10         -2.3310     1.9420    -2.5980 hc         1 HLC       0.076200
     30 H11         -4.5810    -0.0770    -2.2780 h1         1 HLC       0.033200
     31 H12         -4.5820     1.5750    -1.6440 h1         1 HLC       0.033200
     32 H13         -5.9150     2.2450    -5.8630 ha         1 HLC       0.145500
     33 H14         -8.3600     2.3580    -6.1620 ha         1 HLC       0.145500
     34 H15         -8.9200     0.8390    -2.2080 ha         1 HLC       0.145500
     35 H16         -6.4770     0.7200    -1.9040 ha         1 HLC       0.145500
     36 Cl1        -10.5080     1.6870    -4.4160 cl         1 HLC      -0.113400
@<TRIPOS>BOND
     1     1     8 1
     2     1    10 1
     3     1    20 1
     4     2     3 2
     5     2     5 1
     6     2     8 1
     7     4     5 1
     8     4     6 1
     9     4    21 1
    10     4    22 1
    11     6     8 1
    12     6    23 1
    13     6    24 1
    14     7    13 1
    15     7    14 1
    16     8    25 1
    17     9    10 2
    18    10    11 1
    19    11    12 1
    20    11    26 1
    21    11    27 1
    22    12    13 1
    23    12    28 1
    24    12    29 1
    25    13    30 1
    26    13    31 1
    27    14    15 ar
    28    14    19 ar
    29    15    16 ar
    30    15    32 1
    31    16    17 ar
    32    16    33 1
    33    17    18 ar
    34    17    36 1
    35    18    19 ar
    36    18    34 1
    37    19    35 1
@<TRIPOS>SUBSTRUCTURE
     1 HLC         1 TEMP              0 ****  ****    0 ROOT
