@<TRIPOS>MOLECULE
molecule
   15    15     1     0     0
SMALL
bcc


@<TRIPOS>ATOM
      1 OAC          0.0000     0.0000     0.0000 o          1 HLD      -0.668100
      2 CAM          1.2200     0.0000     0.0000 c          1 HLD       0.565500
      3 CAF          1.9970     0.0000     1.2490 cc         1 HLD      -0.377200
      4 CAK          3.3260    -0.2780     1.1670 cd         1 HLD       0.088400
      5 CAI          4.1410    -0.2670     2.4030 c          1 HLD       0.890800
      6 OAD          3.6220    -0.0140     3.4700 o          1 HLD      -0.821550
      7 OAA          5.4590    -0.5400     2.3420 o          1 HLD      -0.821550
      8 CAG          1.9970    -0.0050    -1.2490 cc         1 HLD      -0.377200
      9 CAL          3.3260    -0.2830    -1.1640 cd         1 HLD       0.088400
     10 OAH          3.9170    -0.5600     0.0000 os         1 HLD      -0.128200
     11 CAJ          4.1410    -0.2760    -2.4010 c          1 HLD       0.890800
     12 OAE          5.4580    -0.5490    -2.3400 o          1 HLD      -0.821550
     13 OAB          3.6220    -0.0260    -3.4700 o          1 HLD      -0.821550
     14 H1           1.4890    -0.0630     2.2040 ha         1 HLD       0.156000
     15 H3           1.4890    -0.0740    -2.2030 ha         1 HLD       0.156000
@<TRIPOS>BOND
     1     6     5 1
     2     3     4 2
     3     3     2 1
     4     5     4 1
     5     5     7 1
     6     1     2 2
     7     4    10 1
     8     2     8 1
     9    10     9 1
    10     8     9 2
    11     9    11 1
    12    11    13 1
    13    11    12 1
    14     3    14 1
    15     8    15 1
@<TRIPOS>SUBSTRUCTURE
     1 HLD         1 TEMP              0 ****  ****    0 ROOT
