@<TRIPOS>MOLECULE
HLD
   15    15     1     0     0
SMALL
bcc


@<TRIPOS>ATOM
      1 OAC        -0.0070   -0.8550   -0.0330 o         1 HLD     -0.694100
      2 CAM         1.2190   -0.5880   -0.0190 c         1 HLD      0.584500
      3 CAF         1.9840   -0.4330    1.2060 cc        1 HLD     -0.382200
      4 CAK         3.3120   -0.1420    1.1810 cd        1 HLD      0.089900
      5 CAI         4.1720    0.0330    2.4430 c         1 HLD      0.930800
      6 OAD         4.2370    1.1860    2.9440 o         1 HLD     -0.816300
      7 OAA         4.7110   -0.9980    2.9240 o         1 HLD     -0.816300
      8 CAG         2.0040   -0.4040   -1.2270 cc        1 HLD     -0.382200
      9 CAL         3.3320   -0.1140   -1.1730 cd        1 HLD      0.089900
     10 OAH         4.0150    0.0230    0.0110 os        1 HLD     -0.173200
     11 CAJ         4.2130    0.0910   -2.4160 c         1 HLD      0.930800
     12 OAE         4.7630   -0.9280   -2.9100 o         1 HLD     -0.816300
     13 OAB         4.2830    1.2550   -2.8910 o         1 HLD     -0.816300
     14 H1          1.4650   -0.5560    2.1630 ha        1 HLD      0.136000
     15 H3          1.5010   -0.5040   -2.1960 ha        1 HLD      0.136000
@<TRIPOS>BOND
     1    1    2 2   
     2    2    3 1   
     3    2    8 1   
     4    3    4 2   
     5    3   14 1   
     6    4    5 1   
     7    4   10 1   
     8    5    6 1   
     9    5    7 1   
    10    8    9 2   
    11    8   15 1   
    12    9   10 1   
    13    9   11 1   
    14   11   12 1   
    15   11   13 1   
@<TRIPOS>SUBSTRUCTURE
     1 HLD         1 TEMP              0 ****  ****    0 ROOT
