@<TRIPOS>MOLECULE
HLE
   28    27     1     0     0
SMALL
bcc


@<TRIPOS>ATOM
      1 N            0.0000     0.0000     0.0000 ns         1 HLE      -0.051400
      2 OH           1.4160     0.0000     0.0000 oh         1 HLE      -0.431100
      3 CA          -2.6890     1.2480     0.4450 c3         1 HLE      -0.198700
      4 CB          -4.2200     1.2480     0.4450 c3         1 HLE      -0.012400
      5 CG          -4.7310     2.4240    -0.3890 c3         1 HLE      -0.061700
      6 CD1         -4.3450     2.2150    -1.8540 c3         1 HLE       0.003400
      7 CD2         -6.2530     2.5120    -0.2700 c3         1 HLE       0.003400
      8 C           -2.1880     2.4780     1.1570 c          1 HLE       0.668900
      9 O           -1.4210     3.2260     0.6000 o          1 HLE      -0.553100
     10 C1          -2.1810    -0.0010     1.1660 c3         1 HLE       0.143100
     11 O3          -2.6570    -0.0010     2.5140 oh         1 HLE      -0.556800
     12 C2          -0.6730     0.0000     1.1670 c          1 HLE       0.526100
     13 O2          -0.0660    -0.0010     2.2160 o          1 HLE      -0.590100
     14 HN          -0.5000    -0.0440    -0.8660 hn         1 HLE       0.157500
     15 HO           1.7310    -0.4730    -0.7520 ho         1 HLE       0.389000
     16 HA          -2.3280     1.2490    -0.5760 hc         1 HLE       0.053700
     17 HB1         -4.5810     0.3200     0.0190 hc         1 HLE       0.026200
     18 HB2         -4.5810     1.3430     1.4620 hc         1 HLE       0.026200
     19 HG          -4.2870     3.3430    -0.0260 hc         1 HLE       0.032700
     20 HD11        -5.0410     2.7480    -2.4900 hc         1 HLE       0.004867
     21 HD12        -4.3780     1.1580    -2.0890 hc         1 HLE       0.004867
     22 HD13        -3.3420     2.5900    -2.0200 hc         1 HLE       0.004867
     23 HD21        -6.5270     2.6420     0.7700 hc         1 HLE       0.004867
     24 HD22        -6.6980     1.6000    -0.6490 hc         1 HLE       0.004867
     25 HD23        -6.6110     3.3560    -0.8460 hc         1 HLE       0.004867
     26 H           -2.4820     2.6680     2.1820 h4         1 HLE      -0.014800
     27 H1          -2.5410    -0.8850     0.6560 h1         1 HLE       0.009700
     28 HO3         -2.8090    -0.8890     2.7930 ho         1 HLE       0.399000
@<TRIPOS>BOND
     1     1     2 1   
     2     1    12 1   
     3     1    14 1   
     4     2    15 1   
     5     3     4 1   
     6     3     8 1   
     7     3    10 1   
     8     3    16 1   
     9     4     5 1   
    10     4    17 1   
    11     4    18 1   
    12     5     6 1   
    13     5     7 1   
    14     5    19 1   
    15     6    20 1   
    16     6    21 1   
    17     6    22 1   
    18     7    23 1   
    19     7    24 1   
    20     7    25 1   
    21     8     9 2   
    22     8    26 1   
    23    10    11 1   
    24    10    12 1   
    25    10    27 1   
    26    11    28 1   
    27    12    13 2   
@<TRIPOS>SUBSTRUCTURE
     1 HLE         1 TEMP              0 ****  ****    0 ROOT
