@<TRIPOS>MOLECULE
molecule
   49    52     1     0     0
SMALL
bcc


@<TRIPOS>ATOM
      1 C1           0.0000     0.0000     0.0000 c3         1 HLI       0.109400
      2 N1          -4.0440     0.7100     1.4970 nc         1 HLI      -0.712000
      3 O1          -1.4480    -2.9430     1.2140 o          1 HLI      -0.684500
      4 P1          -0.8880     6.8320     1.9760 p5         1 HLI       1.035000
      5 Cl1          4.0900    -0.0020    -5.2230 cl         1 HLI      -0.141400
      6 C2          -2.7980    -1.1060     1.3560 cd         1 HLI      -0.416200
      7 N2          -1.9750     0.0000     1.4420 na         1 HLI      -0.167900
      8 O2          -2.0130     7.7120     2.7180 o          1 HLI      -0.890167
      9 C3          -4.1130    -0.6250     1.3940 cc         1 HLI       0.646300
     10 N3          -3.6550    -3.3080     1.1840 ns         1 HLI      -0.484400
     11 O3          -0.6470     7.3790     0.6230 o          1 HLI      -0.890167
     12 C4          -2.7870     1.0920     1.5280 cd         1 HLI       0.608000
     13 N4          -5.1360    -1.5010     1.3250 nc         1 HLI      -0.751700
     14 O4           0.4790     6.8790     2.8260 o          1 HLI      -0.890167
     15 C5          -4.9160    -2.7910     1.2250 cd         1 HLI       0.691800
     16 N5          -5.9890    -3.6450     1.1580 nu         1 HLI      -0.894200
     17 O5           1.4290     0.0000     0.0000 os         1 HLI      -0.318900
     18 C6          -2.5800    -2.4890     1.2480 c          1 HLI       0.746100
     19 C7          -2.3240     2.4930     1.6360 ca         1 HLI      -0.212500
     20 C8          -0.5110     0.0000     1.4420 c3         1 HLI       0.042300
     21 C9          -1.0360     2.8390     1.2240 ca         1 HLI      -0.144500
     22 C10         -0.6100     4.1470     1.3290 ca         1 HLI      -0.089000
     23 C11         -1.4560     5.1140     1.8420 ca         1 HLI      -0.095500
     24 C12         -2.7330     4.7780     2.2510 ca         1 HLI      -0.089000
     25 C13         -3.1740     3.4740     2.1470 ca         1 HLI      -0.144500
     26 C14         -7.3520    -3.1130     1.1990 c3         1 HLI       0.248100
     27 C15          2.0460     0.0000    -1.2100 ca         1 HLI       0.169100
     28 C16          3.4310    -0.0000    -1.2840 ca         1 HLI      -0.180500
     29 C17          4.0560    -0.0010    -2.5170 ca         1 HLI      -0.086000
     30 C18          3.3030    -0.0010    -3.6760 ca         1 HLI      -0.018600
     31 C19          1.9200    -0.0010    -3.6050 ca         1 HLI      -0.086000
     32 C20          1.2910    -0.0060    -2.3750 ca         1 HLI      -0.180500
     33 H1          -0.3610     0.8840    -0.5110 h1         1 HLI       0.055700
     34 H1A         -0.3610    -0.8850    -0.5110 h1         1 HLI       0.055700
     35 HN3         -3.5240    -4.2970     1.1070 hn         1 HLI       0.316500
     36 H8          -0.1500    -0.8850     1.9530 h1         1 HLI       0.094700
     37 H8A         -0.1490     0.8840     1.9530 h1         1 HLI       0.094700
     38 H9          -0.4070     2.1030     0.7380 ha         1 HLI       0.105000
     39 H10          0.3890     4.4180     1.0090 ha         1 HLI       0.157000
     40 H12         -3.3900     5.5400     2.6530 ha         1 HLI       0.157000
     41 H13         -4.1830     3.3670     2.5270 ha         1 HLI       0.105000
     42 H14         -7.4930    -2.5500     2.1130 h1         1 HLI       0.040700
     43 H14A        -7.5120    -2.4630     0.3460 h1         1 HLI       0.040700
     44 H16          4.0230     0.0000    -0.3770 ha         1 HLI       0.150500
     45 H17          5.1380    -0.0010    -2.5750 ha         1 HLI       0.137500
     46 H19          1.3320    -0.0060    -4.5140 ha         1 HLI       0.137500
     47 H20          0.2090    -0.0060    -2.3200 ha         1 HLI       0.150500
     48 H14B        -8.0610    -3.9310     1.1660 h1         1 HLI       0.040700
     49 HN5         -5.8390    -4.6340     1.1110 hn         1 HLI       0.430800
@<TRIPOS>BOND
     1    20     1 1
     2     1    17 1
     3     1    33 1
     4     1    34 1
     5     9     2 1
     6     2    12 2
     7    18     3 2
     8    11     4 1
     9    23     4 1
    10     4     8 1
    11     4    14 1
    12    30     5 1
    13     9     6 2
    14    18     6 1
    15     6     7 1
    16    12     7 1
    17     7    20 1
    18    13     9 1
    19    15    10 1
    20    10    18 1
    21    10    35 1
    22    12    19 1
    23    15    13 2
    24    16    15 1
    25    26    16 1
    26    17    27 1
    27    25    19 ar
    28    19    21 ar
    29    20    36 1
    30    20    37 1
    31    21    22 ar
    32    21    38 1
    33    23    22 ar
    34    22    39 1
    35    24    23 ar
    36    25    24 ar
    37    24    40 1
    38    25    41 1
    39    26    42 1
    40    26    43 1
    41    27    28 ar
    42    27    32 ar
    43    28    29 ar
    44    28    44 1
    45    29    30 ar
    46    29    45 1
    47    31    30 ar
    48    32    31 ar
    49    31    46 1
    50    32    47 1
    51    26    48 1
    52    16    49 1
@<TRIPOS>SUBSTRUCTURE
     1 HLI         1 TEMP              0 ****  ****    0 ROOT
