@<TRIPOS>MOLECULE
molecule
   40    41     1     0     0
SMALL
bcc


@<TRIPOS>ATOM
      1 CAA          0.0000     0.0000     0.0000 c3         1 HLN      -0.092100
      2 CAB          1.5300     0.0000     0.0000 c3         1 HLN      -0.085400
      3 CAC          2.0410     0.0000     1.4420 c3         1 HLN      -0.082400
      4 CAD          3.5710     0.0010     1.4420 c3         1 HLN      -0.080400
      5 CAE          4.0810     0.0010     2.8840 c3         1 HLN      -0.043400
      6 CAF          5.6110     0.0010     2.8840 c3         1 HLN      -0.255600
      7 PAG          6.2190     0.0010     4.6030 p5         1 HLN       1.129600
      8 OAH          5.7930    -1.3740     5.3230 o          1 HLN      -0.797500
      9 OAI          5.6290     1.1440     5.3350 o          1 HLN      -0.797500
     10 OAJ          7.8230     0.1340     4.6050 os         1 HLN      -0.480500
     11 CAR          8.3660     0.2520     5.8440 ca         1 HLN       0.194100
     12 CAQ          8.7340    -0.8720     6.5280 ca         1 HLN      -0.139000
     13 CAK          9.2960    -0.7520     7.8100 ca         1 HLN      -0.017000
     14 CAP          9.6870    -1.8850     8.5440 ca         1 HLN      -0.107000
     15 CAO         10.2280    -1.7310     9.7840 ca         1 HLN      -0.148000
     16 CAN         10.4020    -0.4650    10.3380 ca         1 HLN      -0.152000
     17 CAM         10.0350     0.6550     9.6570 ca         1 HLN      -0.115000
     18 CAL          9.4730     0.5360     8.3750 ca         1 HLN      -0.052000
     19 CAT          9.0840     1.6710     7.6420 ca         1 HLN      -0.130000
     20 CAS          8.5480     1.5220     6.4010 ca         1 HLN      -0.112000
     21 H1          -0.3610    -0.8840     0.5110 hc         1 HLN       0.026367
     22 H2          -0.3610     0.8850     0.5100 hc         1 HLN       0.026367
     23 H3          -0.3610    -0.0000    -1.0210 hc         1 HLN       0.026367
     24 H4           1.8910    -0.8840    -0.5110 hc         1 HLN       0.034200
     25 H5           1.8910     0.8840    -0.5110 hc         1 HLN       0.034200
     26 H6           1.6790     0.8840     1.9530 hc         1 HLN       0.041200
     27 H7           1.6810    -0.8850     1.9530 hc         1 HLN       0.041200
     28 H8           3.9330    -0.8830     0.9310 hc         1 HLN       0.028700
     29 H9           3.9320     0.8860     0.9320 hc         1 HLN       0.028700
     30 H10          3.7190     0.8860     3.3950 hc         1 HLN       0.056700
     31 H11          3.7190    -0.8830     3.3950 hc         1 HLN       0.056700
     32 H12          5.9720    -0.8830     2.3730 hc         1 HLN       0.040700
     33 H13          5.9720     0.8860     2.3740 hc         1 HLN       0.040700
     34 H15          8.6980    -1.8380     6.0410 ha         1 HLN       0.152000
     35 H16          9.5580    -2.8760     8.1260 ha         1 HLN       0.129000
     36 H17         10.5290    -2.6060    10.3470 ha         1 HLN       0.110000
     37 H18         10.8360    -0.3700    11.3260 ha         1 HLN       0.108000
     38 H19         10.1760     1.6330    10.1010 ha         1 HLN       0.117000
     39 H20          9.2190     2.6610     8.0600 ha         1 HLN       0.119000
     40 H21          8.2610     2.3990     5.8340 ha         1 HLN       0.143000
@<TRIPOS>BOND
     1     1     2 1
     2     2     3 1
     3     3     4 1
     4     4     5 1
     5     5     6 1
     6     6     7 1
     7    19    20 ar
     8    19    18 ar
     9    20    11 ar
    10     9     7 1
    11     7    10 1
    12     7     8 1
    13    17    18 ar
    14    17    16 ar
    15    18    13 ar
    16    11    10 1
    17    11    12 ar
    18    16    15 ar
    19    13    12 ar
    20    13    14 ar
    21    15    14 ar
    22     1    21 1
    23     1    22 1
    24     1    23 1
    25     2    24 1
    26     2    25 1
    27     3    26 1
    28     3    27 1
    29     4    28 1
    30     4    29 1
    31     5    30 1
    32     5    31 1
    33     6    32 1
    34     6    33 1
    35    12    34 1
    36    14    35 1
    37    15    36 1
    38    16    37 1
    39    17    38 1
    40    19    39 1
    41    20    40 1
@<TRIPOS>SUBSTRUCTURE
     1 HLN         1 TEMP              0 ****  ****    0 ROOT
