@<TRIPOS>MOLECULE
HLN
   40    41     1     0     0
SMALL
bcc


@<TRIPOS>ATOM
      1 CAA         0.2620   -0.1010   -0.4480 c3        1 HLN     -0.090100
      2 CAB         1.7480   -0.0740   -0.2040 c3        1 HLN     -0.080400
      3 CAC         2.0710   -0.0210    1.2740 c3        1 HLN     -0.080400
      4 CAD         3.5650    0.0070    1.5150 c3        1 HLN     -0.068400
      5 CAE         3.8860    0.0590    2.9910 c3        1 HLN     -0.071400
      6 CAF         5.3620    0.0880    3.2670 c3        1 HLN     -0.337600
      7 PAG         5.5200    0.1450    4.9460 p5        1 HLN      1.358600
      8 OAH         5.1450   -1.1420    5.5610 o         1 HLN     -0.844500
      9 OAI         5.1120    1.4600    5.4790 o         1 HLN     -0.844500
     10 OAJ         7.2270    0.1850    4.9860 os        1 HLN     -0.502500
     11 CAR         7.9270    0.2670    6.1260 ca        1 HLN      0.253100
     12 CAQ         8.4270   -0.8750    6.7460 ca        1 HLN     -0.209000
     13 CAK         9.2750   -0.7700    7.8720 ca        1 HLN     -0.001000
     14 CAP         9.7950   -1.9260    8.5220 ca        1 HLN     -0.122000
     15 CAO        10.6270   -1.8080    9.6070 ca        1 HLN     -0.145000
     16 CAN        10.9820   -0.5300   10.1010 ca        1 HLN     -0.168000
     17 CAM        10.4930    0.6030    9.4970 ca        1 HLN     -0.107000
     18 CAL         9.6310    0.5110    8.3730 ca        1 HLN     -0.077000
     19 CAT         9.1050    1.6660    7.7320 ca        1 HLN     -0.126000
     20 CAS         8.2820    1.5580    6.6440 ca        1 HLN     -0.147000
     21 H1         -0.2000   -0.9970    0.0350 hc        1 HLN      0.026367
     22 H2          0.0460   -0.1410   -1.5430 hc        1 HLN      0.026367
     23 H3         -0.2230    0.8120   -0.0250 hc        1 HLN      0.026367
     24 H4          2.1980    0.8180   -0.7160 hc        1 HLN      0.033700
     25 H5          2.2210   -0.9860   -0.6560 hc        1 HLN      0.033700
     26 H6          1.6010    0.8910    1.7290 hc        1 HLN      0.039200
     27 H7          1.6250   -0.9120    1.7880 hc        1 HLN      0.039200
     28 H8          4.0130    0.8990    1.0030 hc        1 HLN      0.031200
     29 H9          4.0370   -0.9050    1.0620 hc        1 HLN      0.031200
     30 H10         3.4240    0.9740    3.4540 hc        1 HLN      0.054700
     31 H11         3.4490   -0.8360    3.5120 hc        1 HLN      0.054700
     32 H12         5.8350    0.9750    2.7840 hc        1 HLN      0.070700
     33 H13         5.8600   -0.8150    2.8420 hc        1 HLN      0.070700
     34 H15         8.1420   -1.8670    6.3690 ha        1 HLN      0.148000
     35 H16         9.5070   -2.9150    8.1350 ha        1 HLN      0.125000
     36 H17        11.0250   -2.7010   10.1080 ha        1 HLN      0.110000
     37 H18        11.6490   -0.4590   10.9710 ha        1 HLN      0.110000
     38 H19        10.7590    1.6010    9.8750 ha        1 HLN      0.113000
     39 H20         9.3720    2.6550    8.1340 ha        1 HLN      0.113000
     40 H21         7.8540    2.4470    6.1550 ha        1 HLN      0.152000
@<TRIPOS>BOND
     1    1    2 1   
     2    1   21 1   
     3    1   22 1   
     4    1   23 1   
     5    2    3 1   
     6    2   24 1   
     7    2   25 1   
     8    3    4 1   
     9    3   26 1   
    10    3   27 1   
    11    4    5 1   
    12    4   28 1   
    13    4   29 1   
    14    5    6 1   
    15    5   30 1   
    16    5   31 1   
    17    6    7 1   
    18    6   32 1   
    19    6   33 1   
    20    7    8 1   
    21    7    9 1   
    22    7   10 1   
    23   10   11 1   
    24   11   12 ar  
    25   11   20 ar  
    26   12   13 ar  
    27   12   34 1   
    28   13   14 ar  
    29   13   18 ar  
    30   14   15 ar  
    31   14   35 1   
    32   15   16 ar  
    33   15   36 1   
    34   16   17 ar  
    35   16   37 1   
    36   17   18 ar  
    37   17   38 1   
    38   18   19 ar  
    39   19   20 ar  
    40   19   39 1   
    41   20   40 1   
@<TRIPOS>SUBSTRUCTURE
     1 HLN         1 TEMP              0 ****  ****    0 ROOT
