@<TRIPOS>MOLECULE
HLO
   42    45     1     0     0
SMALL
bcc


@<TRIPOS>ATOM
      1 O3           0.0000     0.0000     0.0000 o          1 HLO      -0.075000
      2 C14          1.2430     0.0000     0.0000 c2         1 HLO       0.069000
      3 N4           1.9560     0.0000     1.1960 nz         1 HLO       0.817000
      4 C11          2.0010    -0.0190    -1.2400 c2         1 HLO      -0.120000
      5 C10          3.3920    -0.0360    -1.2070 c2         1 HLO       0.007000
      6 C9           4.0900    -0.0550    -2.4070 c2         1 HLO      -0.153000
      7 N3           3.4250    -0.0550    -3.5690 na         1 HLO       0.587000
      8 C13          2.0870    -0.0380    -3.6310 c2         1 HLO      -0.153000
      9 C12          1.3370    -0.0190    -2.4630 c2         1 HLO       0.007000
     10 C8           4.1870    -0.0740    -4.8150 c3         1 HLO       0.002000
     11 O2           4.4470    -1.4030    -5.2610 os         1 HLO      -0.280000
     12 C7           5.2760    -1.4780    -6.4170 c3         1 HLO       0.025000
     13 N2           5.6060    -2.8720    -6.7730 n3         1 HLO       0.532000
     14 C2           4.8100    -3.5450    -7.6050 c3         1 HLO      -0.119000
     15 C1           3.6270    -2.9020    -8.1530 c2         1 HLO      -0.544000
     16 N1           3.1360    -3.2000    -9.3220 n2         1 HLO       0.313000
     17 O1           2.0060    -2.4130    -9.5630 oh         1 HLO      -0.165000
     18 C3           5.1200    -4.8560    -7.9400 c2         1 HLO      -0.229000
     19 C4           6.2620    -5.4350    -7.3940 c3         1 HLO       0.061000
     20 C5           7.0660    -4.7000    -6.5290 c2         1 HLO      -0.007000
     21 C6           6.7070    -3.3930    -6.2300 c2         1 HLO      -0.199000
     22 C22          6.6130    -6.8070    -7.7250 c2         1 HLO      -0.390000
     23 N5           5.9010    -7.5470    -8.5260 n2         1 HLO       0.249000
     24 O4           6.4950    -8.8060    -8.6420 oh         1 HLO      -0.117000
     25 H4N1         2.5770     0.7850     1.2140 hn         1 HLO       0.056333
     26 H4N2         1.3180     0.0610     1.9650 hn         1 HLO       0.056333
     27 H10          3.9090    -0.2400    -0.2770 ha         1 HLO       0.163500
     28 H12          0.2760     0.1990    -2.5040 ha         1 HLO       0.163500
     29 H9           5.1730    -0.0610    -2.4030 h4         1 HLO       0.198000
     30 H13          1.5890    -0.0370    -4.5930 h4         1 HLO       0.198000
     31 H8C1         3.6250     0.4500    -5.5790 h2         1 HLO       0.105500
     32 H8C2         5.1290     0.4360    -4.6590 h2         1 HLO       0.105500
     33 H7C1         4.7600    -1.0150    -7.2500 h2         1 HLO       0.106000
     34 H7C2         6.1940    -0.9360    -6.2270 h2         1 HLO       0.106000
     35 H6           7.3170    -2.8000    -5.5590 h4         1 HLO       0.171000
     36 H1           3.6690    -3.9370    -7.8360 DU         1 HLO       0.307000
     37 H3           4.4860    -5.4180    -8.6140 ha         1 HLO       0.176000
     38 HA           1.7180    -2.5400   -10.4510 ho         1 HLO       0.250000
     39 H5           7.9570    -5.1400    -6.0970 ha         1 HLO       0.184000
     40 H22          5.7570    -6.5220    -7.1260 DU         1 HLO       0.241000
     41 H4           6.0490    -9.3030    -9.3080 ho         1 HLO       0.240000
     42 H43          2.4840    -0.8470     1.2700 hn         1 HLO       0.056333
@<TRIPOS>BOND
     1     1     2 1   
     2     2     3 1   
     3     2     4 1   
     4     3    25 1   
     5     3    26 1   
     6     3    42 1   
     7     4     5 1   
     8     4     9 1   
     9     5     6 1   
    10     5    27 1   
    11     6     7 1   
    12     6    29 1   
    13     7     8 1   
    14     7    10 1   
    15     8     9 1   
    16     8    30 1   
    17     9    28 1   
    18    10    11 1   
    19    10    31 1   
    20    10    32 1   
    21    11    12 1   
    22    12    13 1   
    23    12    33 1   
    24    12    34 1   
    25    13    14 1   
    26    13    21 1   
    27    14    15 1   
    28    14    18 1   
    29    14    36 1   
    30    15    16 1   
    31    15    36 1   
    32    16    17 1   
    33    17    38 1   
    34    18    19 1   
    35    18    37 1   
    36    19    20 1   
    37    19    22 1   
    38    19    40 1   
    39    20    21 1   
    40    20    39 1   
    41    21    35 1   
    42    22    23 1   
    43    22    40 1   
    44    23    24 1   
    45    24    41 1   
@<TRIPOS>SUBSTRUCTURE
     1 HLO         1 TEMP              0 ****  ****    0 ROOT
