@<TRIPOS>MOLECULE
molecule
   42    43     1     0     0
SMALL
bcc


@<TRIPOS>ATOM
      1 O3           0.0000     0.0000     0.0000 o          1 HLO      -0.332300
      2 C14          1.2430     0.0000     0.0000 c2         1 HLO       0.495300
      3 N4           1.9560     0.0000     1.1960 nz         1 HLO      -0.684400
      4 C11          2.0010    -0.0190    -1.2400 cc         1 HLO      -0.055000
      5 C10          3.3920    -0.0360    -1.2070 cc         1 HLO      -0.091000
      6 C9           4.0900    -0.0550    -2.4070 cd         1 HLO       0.045500
      7 N3           3.4250    -0.0550    -3.5690 na         1 HLO      -0.157200
      8 C13          2.0870    -0.0380    -3.6310 cd         1 HLO       0.045500
      9 C12          1.3370    -0.0190    -2.4630 cc         1 HLO      -0.091000
     10 C8           4.1870    -0.0740    -4.8150 c3         1 HLO       0.399600
     11 O2           4.4470    -1.4030    -5.2610 os         1 HLO      -0.461600
     12 C7           5.2760    -1.4780    -6.4170 c3         1 HLO       0.230100
     13 N2           5.6060    -2.8720    -6.7730 na         1 HLO       0.022900
     14 C2           4.8100    -3.5450    -7.6050 ca         1 HLO       0.002800
     15 C1           3.6270    -2.9020    -8.1530 ce         1 HLO       0.303800
     16 N1           3.1360    -3.2000    -9.3220 n2         1 HLO      -0.261200
     17 O1           2.0060    -2.4130    -9.5630 oh         1 HLO      -0.361500
     18 C3           5.1200    -4.8560    -7.9400 ca         1 HLO      -0.097000
     19 C4           6.2620    -5.4350    -7.3940 ca         1 HLO       0.034100
     20 C5           7.0660    -4.7000    -6.5290 ca         1 HLO      -0.120000
     21 C6           6.7070    -3.3930    -6.2300 ca         1 HLO      -0.029300
     22 C22          6.6130    -6.8070    -7.7250 ce         1 HLO       0.329800
     23 N5           5.9010    -7.5470    -8.5260 n2         1 HLO      -0.304200
     24 O4           6.4950    -8.8060    -8.6420 oh         1 HLO      -0.334500
     25 H4N1         1.3190    -0.0690     1.9640 hn         1 HLO       0.496467
     26 H4N2         2.5830    -0.7800     1.2110 hn         1 HLO       0.496467
     27 H10          3.9140     0.1690    -0.2800 ha         1 HLO       0.214000
     28 H12          0.2760     0.1990    -2.5040 ha         1 HLO       0.214000
     29 H9           5.1730    -0.0400    -2.4030 h4         1 HLO       0.239500
     30 H13          1.5900    -0.0140    -4.5930 h4         1 HLO       0.239500
     31 H8C1         3.6250     0.4500    -5.5790 h2         1 HLO       0.107200
     32 H8C2         5.1290     0.4360    -4.6590 h2         1 HLO       0.107200
     33 H7C1         6.1940    -0.9360    -6.2270 h2         1 HLO       0.099200
     34 H7C2         4.7600    -1.0140    -7.2500 h2         1 HLO       0.099200
     35 H6           7.3170    -2.8000    -5.5590 h4         1 HLO       0.204000
     36 H1           3.1370    -2.1400    -7.5590 h4         1 HLO       0.015800
     37 H3           4.4860    -5.4180    -8.6140 ha         1 HLO       0.230000
     38 HA           1.6540    -2.6190   -10.4130 ho         1 HLO       0.479000
     39 H5           7.9570    -5.1390    -6.0970 ha         1 HLO       0.213000
     40 H22          7.5080    -7.2280    -7.2840 h4         1 HLO       0.054800
     41 H4           5.8500    -9.4320    -8.9300 ho         1 HLO       0.466000
     42 H43          2.4840     0.8470     1.2700 hn         1 HLO       0.496467
@<TRIPOS>BOND
     1     1     2 1
     2     2     3 1
     3     2     4 2
     4     3    25 1
     5     3    26 1
     6     4     5 1
     7     4     9 1
     8     5     6 2
     9     5    27 1
    10     6     7 1
    11     6    29 1
    12     7     8 1
    13     7    10 1
    14     8     9 2
    15     8    30 1
    16     9    28 1
    17    10    11 1
    18    10    31 1
    19    10    32 1
    20    11    12 1
    21    12    13 1
    22    12    33 1
    23    12    34 1
    24    13    14 1
    25    13    21 2
    26    14    15 1
    27    14    18 ar
    28    15    16 2
    29    15    36 1
    30    16    17 1
    31    17    38 1
    32    18    19 ar
    33    18    37 1
    34    19    20 ar
    35    19    22 1
    36    20    21 ar
    37    20    39 1
    38    21    35 1
    39    22    23 2
    40    22    40 1
    41    23    24 1
    42    24    41 1
    43    42     3 1
@<TRIPOS>SUBSTRUCTURE
     1 HLO         1 TEMP              0 ****  ****    0 ROOT
