@<TRIPOS>MOLECULE
HLR
   16    17     1     0     0
SMALL
bcc


@<TRIPOS>ATOM
      1 C1          0.0690    0.0250   -0.0570 ca        1 HLR     -0.237900
      2 C2          1.4540   -0.0610   -0.0420 ca        1 HLR     -0.058000
      3 C3          2.0880   -0.1030    1.2000 ca        1 HLR     -0.159000
      4 C4          1.3600   -0.0600    2.4000 ca        1 HLR     -0.092000
      5 C5         -0.0320    0.0300    2.4130 ca        1 HLR     -0.125000
      6 C6         -0.6520    0.0700    1.1710 ca        1 HLR      0.065100
      7 C          -1.0030    0.1000   -1.0780 cc        1 HLR      0.547800
      8 N1         -2.2030    0.1670   -0.4410 nd        1 HLR     -0.461200
      9 N2         -0.7680    0.1860   -2.4430 nh        1 HLR     -0.856800
     10 O7         -2.0250    0.1630    0.8790 os        1 HLR     -0.010600
     11 H2          2.0340   -0.0880   -0.9750 ha        1 HLR      0.140000
     12 H3          3.1850   -0.1700    1.2440 ha        1 HLR      0.138000
     13 H4          1.9030   -0.0950    3.3570 ha        1 HLR      0.139000
     14 H5         -0.6070    0.0670    3.3470 ha        1 HLR      0.157000
     15 H21N       -1.5670    0.0420   -3.0230 hn        1 HLR      0.405800
     16 H22N        0.0380   -0.3240   -2.7320 hn        1 HLR      0.405800
@<TRIPOS>BOND
     1    1    2 ar
     2    1    6 ar
     3    1    7 1
     4    2    3 ar
     5    2   11 1
     6    3    4 ar
     7    3   12 1
     8    4    5 ar
     9    4   13 1
    10    5    6 ar
    11    5   14 1
    12    6   10 1
    13    7    8 2
    14    7    9 1
    15    8   10 1
    16    9   15 1
    17    9   16 1
@<TRIPOS>SUBSTRUCTURE
     1 HLR         1 TEMP              0 ****  ****    0 ROOT
