@<TRIPOS>MOLECULE
HLT
    8     7     1     0     0
SMALL
bcc


@<TRIPOS>ATOM
      1 F1          0.0410   -0.0170   -0.0560 f         1 HLT     -0.218300
      2 C2          1.4110    0.0220   -0.0020 c3        1 HLT      0.637900
      3 F2          1.8040   -1.0920   -0.6980 f         1 HLT     -0.218300
      4 F3          1.7700    1.0830   -0.7860 f         1 HLT     -0.218300
      5 C1          1.9580    0.0540    1.4670 c3        1 HLT      0.022100
      6 BR          3.8820   -0.0150    1.5710 br        1 HLT     -0.059400
      7 CL          1.3280    1.4210    2.3350 cl        1 HLT     -0.076400
      8 HC1         1.5790   -0.8680    1.9740 h2        1 HLT      0.130700
@<TRIPOS>BOND
     1    1    2 1   
     2    2    3 1   
     3    2    4 1   
     4    2    5 1   
     5    5    6 1   
     6    5    7 1   
     7    5    8 1   
@<TRIPOS>SUBSTRUCTURE
     1 HLT         1 TEMP              0 ****  ****    0 ROOT
