@<TRIPOS>MOLECULE
molecule
    8     7     1     0     0
SMALL
bcc


@<TRIPOS>ATOM
      1 F1           0.0000     0.0000     0.0000 f          1 HLT      -0.205967
      2 C2           1.3990     0.0000     0.0000 c3         1 HLT       0.620900
      3 F2           1.8660    -1.1420    -0.6590 f          1 HLT      -0.205967
      4 F3           1.8650     1.1410    -0.6610 f          1 HLT      -0.205967
      5 C1           1.9100     0.0000     1.4410 c3         1 HLT       0.040100
      6 Br           3.8750     0.0020     1.4420 br         1 HLT      -0.071400
      7 Cl           1.3090     1.4730     2.2900 cl         1 HLT      -0.101400
      8 HC1          1.5490    -0.8840     1.9530 h2         1 HLT       0.129700
@<TRIPOS>BOND
     1     1     2 1
     2     2     3 1
     3     2     4 1
     4     2     5 1
     5     5     6 1
     6     5     7 1
     7     5     8 1
@<TRIPOS>SUBSTRUCTURE
     1 HLT         1 TEMP              0 ****  ****    0 ROOT
