@<TRIPOS>MOLECULE
HLW
   44    46     1     0     0
SMALL
bcc


@<TRIPOS>ATOM
      1 N01          0.0000     0.0000     0.0000 nc         1 HLW      -0.613000
      2 C02          1.3040     0.0000     0.0000 cd         1 HLW       0.237400
      3 N03          1.7380     0.0000     1.2890 na         1 HLW       0.290300
      4 C04          0.6220     0.0010     2.0870 cd         1 HLW      -0.415600
      5 C05         -0.4450     0.0000     1.2660 cc         1 HLW       0.326200
      6 C1'          9.2010    -3.4150    -5.7520 ca         1 HLW      -0.079300
      7 N11          3.3230    -0.0000     3.0150 nb         1 HLW      -0.634000
      8 C12          3.0640    -0.0000     1.7180 ca         1 HLW       0.539500
      9 N13          4.0340    -0.0000     0.8170 nb         1 HLW      -0.631000
     10 C14          5.3030    -0.0020     1.1890 ca         1 HLW       0.440600
     11 C15          5.6110    -0.0010     2.5420 ca         1 HLW      -0.352600
     12 C16          4.5700    -0.0010     3.4560 ca         1 HLW       0.470200
     13 C17          6.4010    -0.0030     0.1570 c3         1 HLW      -0.074700
     14 C18          6.2060    -1.1840    -0.7950 c3         1 HLW       0.145800
     15 N19          7.2750    -1.1850    -1.8010 n7         1 HLW      -0.588200
     16 C2'         10.3820    -4.0870    -5.5030 ca         1 HLW      -0.096000
     17 C20          7.1200    -2.3090    -2.7340 c3         1 HLW       0.143800
     18 C21          8.2500    -2.2770    -3.7650 c3         1 HLW      -0.028400
     19 C22          8.0870    -3.4470    -4.7370 c3         1 HLW       0.031900
     20 C3'         11.4040    -4.0570    -6.4350 ca         1 HLW      -0.029600
     21 C4'         11.2430    -3.3550    -7.6160 ca         1 HLW      -0.103000
     22 C5'         10.0610    -2.6830    -7.8640 ca         1 HLW      -0.087000
     23 C6'          9.0420    -2.7090    -6.9300 ca         1 HLW      -0.098000
     24 Cl7'        12.8890    -4.9010    -6.1220 cl         1 HLW      -0.029400
     25 H02          1.9360    -0.0000    -0.8800 h5         1 HLW       0.035100
     26 H04          0.6030     0.0010     3.1700 h4         1 HLW       0.166000
     27 H05         -1.4830     0.0000     1.5750 h4         1 HLW       0.004100
     28 H15          6.6410    -0.0020     2.8750 ha         1 HLW       0.134000
     29 H16          4.7760    -0.0010     4.5200 h4         1 HLW      -0.008900
     30 H17          7.3610    -0.0920     0.6520 hc         1 HLW       0.033700
     31 H17A         6.3700     0.9230    -0.4040 hc         1 HLW       0.033700
     32 H18          5.2450    -1.0950    -1.2880 h1         1 HLW       0.016200
     33 H18A         6.2380    -2.1100    -0.2330 h1         1 HLW       0.016200
     34 HN19         7.2550    -0.3240    -2.3100 hn         1 HLW       0.254800
     35 H2'         10.5080    -4.6370    -4.5780 ha         1 HLW       0.118000
     36 H20          6.1660    -2.2290    -3.2410 h1         1 HLW       0.008200
     37 H20A         7.1590    -3.2420    -2.1850 h1         1 HLW       0.008200
     38 H21          9.2040    -2.3590    -3.2570 hc         1 HLW       0.023700
     39 H21A         8.2120    -1.3440    -4.3130 hc         1 HLW       0.023700
     40 H22          8.1240    -4.3800    -4.1890 hc         1 HLW       0.019700
     41 H22A         7.1330    -3.3640    -5.2440 hc         1 HLW       0.019700
     42 H4'         12.0420    -3.3330    -8.3470 ha         1 HLW       0.114000
     43 H5'          9.9350    -2.1320    -8.7870 ha         1 HLW       0.106000
     44 H6'          8.1150    -2.1820    -7.1250 ha         1 HLW       0.108000
@<TRIPOS>BOND
     1     1     2 2   
     2     1     5 1   
     3     2     3 1   
     4     2    25 1   
     5     3     4 1   
     6     3     8 1   
     7     4     5 2   
     8     4    26 1   
     9     5    27 1   
    10     6    16 ar  
    11     6    19 1   
    12     6    23 ar  
    13     7     8 ar  
    14     7    12 ar  
    15     8     9 ar  
    16     9    10 ar  
    17    10    11 ar  
    18    10    13 1   
    19    11    12 ar  
    20    11    28 1   
    21    12    29 1   
    22    13    14 1   
    23    13    30 1   
    24    13    31 1   
    25    14    15 1   
    26    14    32 1   
    27    14    33 1   
    28    15    17 1   
    29    15    34 1   
    30    16    20 ar  
    31    16    35 1   
    32    17    18 1   
    33    17    36 1   
    34    17    37 1   
    35    18    19 1   
    36    18    38 1   
    37    18    39 1   
    38    19    40 1   
    39    19    41 1   
    40    20    21 ar  
    41    20    24 1   
    42    21    22 ar  
    43    21    42 1   
    44    22    23 ar  
    45    22    43 1   
    46    23    44 1   
@<TRIPOS>SUBSTRUCTURE
     1 HLW         1 TEMP              0 ****  ****    0 ROOT
