@<TRIPOS>MOLECULE
HLZ
   21    22     1     0     0
SMALL
bcc


@<TRIPOS>ATOM
      1 C1           0.0000     0.0000     0.0000 ca         1 HLZ       0.427200
      2 N2           1.3200     0.0000     0.0000 nb         1 HLZ      -0.358000
      3 N3           2.0230     0.0000     1.0720 nb         1 HLZ      -0.251000
      4 C4           1.5050     0.0010     2.2780 ca         1 HLZ       0.426200
      5 C5           0.1050     0.0010     2.4220 ca         1 HLZ      -0.121300
      6 C6          -0.6800     0.0010     1.2400 ca         1 HLZ      -0.132300
      7 C7          -2.0750     0.0020     1.3380 ca         1 HLZ      -0.109000
      8 C8          -2.6590     0.0030     2.5700 ca         1 HLZ      -0.035000
      9 C9          -1.8900     0.0030     3.7310 ca         1 HLZ      -0.059000
     10 C10         -0.5280     0.0030     3.6710 ca         1 HLZ      -0.050000
     11 N11         -0.7060     0.0060    -1.1910 nu         1 HLZ      -0.580700
     12 N12         -0.0360     0.0100    -2.3820 nz         1 HLZ       0.317600
     13 H4           2.1470     0.0010     3.1500 h4         1 HLZ       0.014100
     14 H7          -2.6870     0.0020     0.4440 ha         1 HLZ       0.098000
     15 H8          -3.7400     0.0030     2.6470 ha         1 HLZ       0.121000
     16 H9          -2.3810     0.0030     4.6960 ha         1 HLZ       0.126000
     17 H10          0.0590     0.0030     4.5820 ha         1 HLZ       0.130000
     18 HN11        -1.7060    -0.0090    -1.1800 hn         1 HLZ       0.385800
     19 HN12         0.5370    -0.8080    -2.4460 hn         1 HLZ       0.217800
     20 HN1A        -0.6950     0.0150    -3.1360 hn         1 HLZ       0.217800
     21 H123         0.5410     0.8260    -2.4380 hn         1 HLZ       0.217800
@<TRIPOS>BOND
     1     1     2 ar  
     2     1     6 ar  
     3     1    11 1   
     4     2     3 ar  
     5     3     4 ar  
     6     4     5 ar  
     7     4    13 1   
     8     5     6 ar  
     9     5    10 ar  
    10     6     7 ar  
    11     7     8 ar  
    12     7    14 1   
    13     8     9 ar  
    14     8    15 1   
    15     9    10 ar  
    16     9    16 1   
    17    10    17 1   
    18    11    12 1   
    19    11    18 1   
    20    12    19 1   
    21    12    20 1   
    22    12    21 1   
@<TRIPOS>SUBSTRUCTURE
     1 HLZ         1 TEMP              0 ****  ****    0 ROOT
