@<TRIPOS>MOLECULE
HM2
   40    42     1     0     0
SMALL
bcc


@<TRIPOS>ATOM
      1 N1           0.0000     0.0000     0.0000 nb         1 HM2      -0.530000
      2 N2          -2.7870     0.0190    -0.1000 nb         1 HM2      -0.651000
      3 N3          -2.8640     0.0270     2.2130 nb         1 HM2      -0.669000
      4 N4          -4.7430     0.0250    -1.4130 nu         1 HM2      -0.497900
      5 C1           1.3160     0.0000     0.0000 ca         1 HM2       0.386200
      6 C2           2.0260     0.0000     1.1880 ca         1 HM2      -0.209300
      7 C3           1.3370     0.0070     2.3920 ca         1 HM2      -0.085000
      8 C4          -0.0470     0.0140     2.3610 ca         1 HM2      -0.174300
      9 C5          -0.6970     0.0130     1.1290 cp         1 HM2       0.306300
     10 C6          -2.1800     0.0200     1.0780 cp         1 HM2       0.597000
     11 C7          -4.1110     0.0260    -0.1790 ca         1 HM2       0.552200
     12 C8          -4.1880     0.0340     2.2100 ca         1 HM2       0.463600
     13 C9          -4.8610     0.0270     1.0020 ca         1 HM2      -0.372200
     14 C10         -3.9470     0.0180    -2.6430 c3         1 HM2       0.162800
     15 C11         -4.8810     0.0190    -3.8550 c3         1 HM2       0.019900
     16 C12         -4.0620     0.0120    -5.1200 ca         1 HM2      -0.090300
     17 C13         -3.6930    -1.1900    -5.6960 ca         1 HM2      -0.094000
     18 C14         -2.9420    -1.1960    -6.8570 ca         1 HM2      -0.097000
     19 C15         -2.5610    -0.0030    -7.4410 ca         1 HM2      -0.101000
     20 C16         -2.9310     1.1980    -6.8650 ca         1 HM2      -0.097000
     21 C17         -3.6860     1.2050    -5.7070 ca         1 HM2      -0.094000
     22 C18         -4.9530     0.0420     3.5080 c3         1 HM2      -0.049400
     23 Cl1         -6.5970     0.0350     0.9520 cl         1 HM2      -0.002400
     24 HN4         -5.7420     0.0570    -1.4640 hn         1 HM2       0.302800
     25 H1           1.8510    -0.0080    -0.9420 h4         1 HM2      -0.019900
     26 H2           3.1090    -0.0020     1.1780 ha         1 HM2       0.110000
     27 H3           1.8690     0.0080     3.3360 ha         1 HM2       0.109000
     28 H4          -0.6170     0.0220     3.2820 ha         1 HM2       0.134000
     29 H101        -3.3180     0.8990    -2.6710 h1         1 HM2       0.034200
     30 H102        -3.3260    -0.8700    -2.6670 h1         1 HM2       0.034200
     31 H111        -5.5100    -0.8630    -3.8270 hc         1 HM2       0.019700
     32 H112        -5.5020     0.9060    -3.8320 hc         1 HM2       0.019700
     33 H13         -3.9910    -2.1250    -5.2390 ha         1 HM2       0.105500
     34 H14         -2.6520    -2.1370    -7.3090 ha         1 HM2       0.103000
     35 H15         -1.9710    -0.0080    -8.3500 ha         1 HM2       0.102000
     36 H16         -2.6340     2.1330    -7.3240 ha         1 HM2       0.103000
     37 H17         -3.9760     2.1460    -5.2560 ha         1 HM2       0.105500
     38 H181        -5.5750    -0.8430     3.5660 hc         1 HM2       0.021033
     39 H182        -5.5780     0.9260     3.5540 hc         1 HM2       0.021033
     40 H183        -4.2560     0.0490     4.3370 hc         1 HM2       0.021033
@<TRIPOS>BOND
     1     1     5 ar  
     2     1     9 ar  
     3     2    10 ar  
     4     2    11 ar  
     5     3    10 ar  
     6     3    12 ar  
     7     4    11 1   
     8     4    14 1   
     9     4    24 1   
    10     5     6 ar  
    11     5    25 1   
    12     6     7 ar  
    13     6    26 1   
    14     7     8 ar  
    15     7    27 1   
    16     8     9 ar  
    17     8    28 1   
    18     9    10 1   
    19    11    13 ar  
    20    12    13 ar  
    21    12    22 1   
    22    13    23 1   
    23    14    15 1   
    24    14    29 1   
    25    14    30 1   
    26    15    16 1   
    27    15    31 1   
    28    15    32 1   
    29    16    17 ar  
    30    16    21 ar  
    31    17    18 ar  
    32    17    33 1   
    33    18    19 ar  
    34    18    34 1   
    35    19    20 ar  
    36    19    35 1   
    37    20    21 ar  
    38    20    36 1   
    39    21    37 1   
    40    22    38 1   
    41    22    39 1   
    42    22    40 1   
@<TRIPOS>SUBSTRUCTURE
     1 HM2         1 TEMP              0 ****  ****    0 ROOT
