@<TRIPOS>MOLECULE
molecule
   15    15     1     0     0
SMALL
bcc


@<TRIPOS>ATOM
      1 C1           0.0000     0.0000     0.0000 c3         1 HM3       0.096100
      2 N1           2.1590     0.0000     1.1460 nb         1 HM3      -0.696000
      3 C2           1.5070     0.0000     0.0000 ca         1 HM3       0.431600
      4 C3           2.1900     0.0000    -1.2020 ca         1 HM3      -0.219300
      5 C4           3.5770     0.0000    -1.1910 ca         1 HM3       0.058400
      6 C5           4.2280     0.0000     0.0350 ca         1 HM3      -0.251300
      7 C6           3.4780     0.0000     1.1950 ca         1 HM3       0.431200
      8 O1          -0.4770     0.0000    -1.3470 oh         1 HM3      -0.615800
      9 H3           1.6490     0.0000    -2.1400 ha         1 HM3       0.174000
     10 Cl1          4.4780     0.0000    -2.6750 cl         1 HM3      -0.094400
     11 H4           5.3110     0.0000     0.0820 ha         1 HM3       0.151000
     12 H5           3.9780     0.0000     2.1560 h4         1 HM3       0.030100
     13 H6          -1.4200     0.0000    -1.3460 ho         1 HM3       0.412000
     14 HOM         -0.3610    -0.8840     0.5110 h1         1 HM3       0.046700
     15 H61         -0.3610     0.8840     0.5110 h1         1 HM3       0.046700
@<TRIPOS>BOND
     1     1     3 1
     2     1     8 1
     3     2     3 ar
     4     2     7 ar
     5     3     4 ar
     6     4     5 ar
     7     4     9 1
     8     5     6 ar
     9     5    10 1
    10     6     7 ar
    11     6    11 1
    12     7    12 1
    13     8    13 1
    14     1    14 1
    15     1    15 1
@<TRIPOS>SUBSTRUCTURE
     1 HM3         1 TEMP              0 ****  ****    0 ROOT
