@<TRIPOS>MOLECULE
HM3
   15    15     1     0     0
SMALL
bcc


@<TRIPOS>ATOM
      1 C1          0.0810    0.0180   -0.0490 c3        1 HM3      0.080100
      2 N1          2.1770   -0.0210    1.2150 nb        1 HM3     -0.670000
      3 C2          1.5900    0.0110   -0.0100 ca        1 HM3      0.406600
      4 C3          2.3280    0.0380   -1.2100 ca        1 HM3     -0.213300
      5 C4          3.7260    0.0320   -1.1320 ca        1 HM3      0.047400
      6 C5          4.3460   -0.0000    0.1200 ca        1 HM3     -0.244300
      7 C6          3.5190   -0.0260    1.2580 ca        1 HM3      0.405200
      8 O1         -0.3350    0.0320   -1.4070 oh        1 HM3     -0.604800
      9 H3          1.8060    0.0630   -2.1790 ha        1 HM3      0.179000
     10 CL1         4.6580    0.0640   -2.5480 cl        1 HM3     -0.079400
     11 H4          5.4390   -0.0060    0.2230 ha        1 HM3      0.157000
     12 H5          3.9620   -0.0520    2.2710 h4        1 HM3      0.027100
     13 H6         -1.3000    0.0300   -1.3910 ho        1 HM3      0.410000
     14 HOM        -0.3090    0.9330    0.4770 h1        1 HM3      0.049700
     15 H61        -0.3180   -0.9020    0.4610 h1        1 HM3      0.049700
@<TRIPOS>BOND
     1    1    3 1   
     2    1    8 1   
     3    1   14 1   
     4    1   15 1   
     5    2    3 ar  
     6    2    7 ar  
     7    3    4 ar  
     8    4    5 ar  
     9    4    9 1   
    10    5    6 ar  
    11    5   10 1   
    12    6    7 ar  
    13    6   11 1   
    14    7   12 1   
    15    8   13 1   
@<TRIPOS>SUBSTRUCTURE
     1 HM3         1 TEMP              0 ****  ****    0 ROOT
