@<TRIPOS>MOLECULE
HM4
   38    39     1     0     0
SMALL
bcc


@<TRIPOS>ATOM
      1 S            0.0000     0.0000     0.0000 ss         1 HM4      -0.272300
      2 N1           1.2100     0.0010     2.2840 nc         1 HM4      -0.545000
      3 N2          -1.1990     0.0040     2.3310 ns         1 HM4      -0.123400
      4 N3          -3.6730    -0.6820     3.1380 nb         1 HM4      -0.552000
      5 N4          -2.5470     1.2060     6.1030 ns         1 HM4      -0.048100
      6 C1           1.7150     0.0000     0.0000 cd         1 HM4      -0.161400
      7 C2           2.1780     0.0000     1.2980 cc         1 HM4       0.373200
      8 C3           0.0680     0.0020     1.6950 cd         1 HM4       0.413300
      9 C4          -1.4830     0.0050     3.7040 c          1 HM4       0.496600
     10 C5          -2.9000    -0.0360     4.0400 ca         1 HM4       0.252800
     11 C6          -4.9940    -0.7420     3.4150 ca         1 HM4       0.361200
     12 C7          -5.5770    -0.1900     4.5450 ca         1 HM4      -0.151300
     13 C8          -4.7490     0.4660     5.4490 ca         1 HM4      -0.131000
     14 C9          -3.3950     0.5400     5.1880 ca         1 HM4      -0.092700
     15 C10         -2.8940     1.8280     7.2870 c          1 HM4       0.700100
     16 C11         -1.9460     3.0290     9.1040 c3         1 HM4       0.184800
     17 C12         -2.5400     2.0500    10.1160 c3         1 HM4      -0.030100
     18 C13         -0.5720     3.5130     9.5680 c3         1 HM4      -0.030100
     19 C14         -2.8830     4.2130     8.8740 c3         1 HM4      -0.030100
     20 O1          -0.6080     0.0040     4.5800 o          1 HM4      -0.594100
     21 O2          -4.0100     1.9280     7.7820 o          1 HM4      -0.621000
     22 O3          -1.7630     2.3460     7.8630 os         1 HM4      -0.416900
     23 HN2         -1.9920     0.0030     1.7220 hn         1 HM4       0.192500
     24 HN4         -1.5750     1.2300     5.8630 hn         1 HM4       0.216500
     25 H1           2.3390    -0.0010    -0.8860 h4         1 HM4       0.160000
     26 H2           3.2360    -0.0000     1.5310 h4         1 HM4      -0.000900
     27 H6          -5.6380    -1.2540     2.7100 h4         1 HM4      -0.019900
     28 H7          -6.6440    -0.2670     4.7180 ha         1 HM4       0.121000
     29 H8          -5.1600     0.9130     6.3460 ha         1 HM4       0.165000
     30 H121        -2.2930     2.3740    11.1200 hc         1 HM4       0.020256
     31 H122        -3.6170     2.0210    10.0000 hc         1 HM4       0.020256
     32 H123        -2.1320     1.0620     9.9450 hc         1 HM4       0.020256
     33 H131         0.1000     2.6680     9.6480 hc         1 HM4       0.020256
     34 H132        -0.6660     3.9920    10.5350 hc         1 HM4       0.020256
     35 H133        -0.1780     4.2220     8.8510 hc         1 HM4       0.020256
     36 H141        -3.9110     3.8700     8.9010 hc         1 HM4       0.020256
     37 H142        -2.6750     4.6560     7.9080 hc         1 HM4       0.020256
     38 H143        -2.7290     4.9520     9.6510 hc         1 HM4       0.020256
@<TRIPOS>BOND
     1     1     6 1   
     2     1     8 1   
     3     2     7 1   
     4     2     8 2   
     5     3     8 1   
     6     3     9 1   
     7     3    23 1   
     8     4    10 ar  
     9     4    11 ar  
    10     5    14 1   
    11     5    15 1   
    12     5    24 1   
    13     6     7 2   
    14     6    25 1   
    15     7    26 1   
    16     9    10 1   
    17     9    20 2   
    18    10    14 ar  
    19    11    12 ar  
    20    11    27 1   
    21    12    13 ar  
    22    12    28 1   
    23    13    14 ar  
    24    13    29 1   
    25    15    21 2   
    26    15    22 1   
    27    16    17 1   
    28    16    18 1   
    29    16    19 1   
    30    16    22 1   
    31    17    30 1   
    32    17    31 1   
    33    17    32 1   
    34    18    33 1   
    35    18    34 1   
    36    18    35 1   
    37    19    36 1   
    38    19    37 1   
    39    19    38 1   
@<TRIPOS>SUBSTRUCTURE
     1 HM4         1 TEMP              0 ****  ****    0 ROOT
