@<TRIPOS>MOLECULE
molecule
   37    38     1     0     0
SMALL
bcc


@<TRIPOS>ATOM
      1 S            0.0000     0.0000     0.0000 ss         1 HM5      -0.166300
      2 N1           1.2110     0.0010     2.2840 nc         1 HM5      -0.630000
      3 N2          -1.1980     0.0020     2.3320 ns         1 HM5      -0.548400
      4 N3          -3.6710    -0.6840     3.1400 nb         1 HM5      -0.633000
      5 N4          -2.5460     1.2030     6.1040 ns         1 HM5      -0.483100
      6 C1           1.7150     0.0000     0.0000 cd         1 HM5      -0.235400
      7 C2           2.1790     0.0000     1.2990 cc         1 HM5       0.360200
      8 C3           0.0680     0.0020     1.6950 cd         1 HM5       0.545300
      9 C4          -1.4810     0.0020     3.7050 c          1 HM5       0.593600
     10 C5          -2.8990    -0.0390     4.0420 ca         1 HM5       0.291800
     11 C6          -4.9930    -0.7450     3.4160 ca         1 HM5       0.357200
     12 C7          -5.5760    -0.1940     4.5460 ca         1 HM5      -0.190300
     13 C8          -4.7470     0.4630     5.4510 ca         1 HM5      -0.140000
     14 C9          -3.3940     0.5360     5.1880 ca         1 HM5       0.030300
     15 C10         -2.9020     1.8260     7.2960 c          1 HM5       0.683100
     16 C11         -1.6960     2.4530     8.0400 c3         1 HM5      -0.140000
     17 C12         -1.0340     3.5120     7.1380 c3         1 HM5      -0.082767
     18 C13         -0.6530     1.3720     8.3650 c3         1 HM5      -0.082767
     19 C14         -2.1680     3.1420     9.3300 c3         1 HM5      -0.082767
     20 O1          -0.6060     0.0030     4.5810 o          1 HM5      -0.565100
     21 O2          -4.0380     1.9010     7.7590 o          1 HM5      -0.582100
     22 HN2         -1.9920     0.0020     1.7230 hn         1 HM5       0.344500
     23 HN4         -1.5740     1.2300     5.8660 hn         1 HM5       0.353500
     24 H1           2.3390    -0.0010    -0.8850 h4         1 HM5       0.182000
     25 H2           3.2370    -0.0000     1.5320 h4         1 HM5       0.045100
     26 H6          -5.6360    -1.2570     2.7100 h4         1 HM5       0.023100
     27 H7          -6.6420    -0.2710     4.7190 ha         1 HM5       0.153000
     28 H8          -5.1580     0.9100     6.3480 ha         1 HM5       0.190000
     29 H121        -0.4090     4.1600     7.7410 hc         1 HM5       0.045922
     30 H122        -0.4260     3.0190     6.3890 hc         1 HM5       0.045922
     31 H123        -1.8000     4.1020     6.6500 hc         1 HM5       0.045922
     32 H131         0.0000     1.7270     9.1530 hc         1 HM5       0.045922
     33 H132        -1.1570     0.4710     8.6920 hc         1 HM5       0.045922
     34 H133        -0.0670     1.1580     7.4790 hc         1 HM5       0.045922
     35 H141        -2.6310     2.4110     9.9810 hc         1 HM5       0.045922
     36 H142        -2.8870     3.9140     9.0850 hc         1 HM5       0.045922
     37 H143        -1.3180     3.5860     9.8340 hc         1 HM5       0.045922
@<TRIPOS>BOND
     1     1     8 1
     2     1     6 1
     3     2     8 2
     4     2     7 1
     5     3     9 1
     6     3     8 1
     7     3    22 1
     8     4    11 ar
     9     4    10 ar
    10     5    14 1
    11     5    15 1
    12     5    23 1
    13     6     7 2
    14     6    24 1
    15     7    25 1
    16     9    10 1
    17     9    20 2
    18    10    14 ar
    19    11    12 ar
    20    11    26 1
    21    12    13 ar
    22    12    27 1
    23    13    14 ar
    24    13    28 1
    25    15    21 2
    26    15    16 1
    27    16    18 1
    28    16    17 1
    29    16    19 1
    30    17    29 1
    31    17    30 1
    32    17    31 1
    33    18    32 1
    34    18    33 1
    35    18    34 1
    36    19    35 1
    37    19    36 1
    38    19    37 1
@<TRIPOS>SUBSTRUCTURE
     1 HM5         1 TEMP              0 ****  ****    0 ROOT
