@<TRIPOS>MOLECULE
molecule
   25    26     1     0     0
SMALL
bcc


@<TRIPOS>ATOM
      1 O2           0.0000     0.0000     0.0000 o          1 HM6      -0.832550
      2 C1           1.2140     0.0000     0.0000 c          1 HM6       0.785600
      3 O1           1.8870     0.0000     1.1670 o          1 HM6      -0.832550
      4 C2           1.9550    -0.0040    -1.2830 ca         1 HM6       0.398300
      5 N1           3.2780    -0.0040    -1.2730 nb         1 HM6      -0.584000
      6 C3           1.2490    -0.0160    -2.4860 ca         1 HM6      -0.249800
      7 C4           1.9560    -0.0200    -3.6860 ca         1 HM6      -0.048200
      8 C5           3.3470    -0.0140    -3.6370 ca         1 HM6      -0.249800
      9 C6           3.9820    -0.0080    -2.3950 ca         1 HM6       0.398300
     10 C7           5.4630    -0.0070    -2.3310 c          1 HM6       0.785600
     11 O4           6.1150    -0.0110    -3.3550 o          1 HM6      -0.832550
     12 O3           6.0850    -0.0010    -1.1360 o          1 HM6      -0.832550
     13 N2           1.2810    -0.0310    -4.9140 na         1 HM6       0.191300
     14 C8           1.8440    -0.0370    -6.1560 cc         1 HM6      -0.187600
     15 C9           0.8290    -0.0480    -7.0430 cd         1 HM6       0.197600
     16 C10          0.9770    -0.0580    -8.5430 c3         1 HM6       0.138100
     17 O5           2.3650    -0.0540    -8.8840 oh         1 HM6      -0.606800
     18 N4          -0.3290    -0.0490    -6.3800 nd         1 HM6      -0.384000
     19 N3          -0.1070    -0.0450    -5.1120 nc         1 HM6      -0.183800
     20 H3           0.1810    -0.1920    -2.4860 ha         1 HM6       0.149500
     21 H5           3.9200     0.1600    -4.5390 ha         1 HM6       0.149500
     22 H8           2.8880    -0.2180    -6.3810 h4         1 HM6       0.201000
     23 H101         0.5090    -0.9480    -8.9460 h1         1 HM6       0.019200
     24 H102         0.5000     0.8210    -8.9590 h1         1 HM6       0.019200
     25 HC           2.4590    -0.0460    -9.8220 ho         1 HM6       0.390000
@<TRIPOS>BOND
     1     1     2 1
     2     2     3 1
     3     2     4 1
     4     4     5 ar
     5     4     6 ar
     6     5     9 ar
     7     6     7 ar
     8     7     8 ar
     9     7    13 1
    10     8     9 ar
    11     9    10 1
    12    10    11 1
    13    10    12 1
    14    13    14 1
    15    13    19 1
    16    14    15 2
    17    15    16 1
    18    15    18 1
    19    16    17 1
    20    18    19 2
    21     6    20 1
    22     8    21 1
    23    14    22 1
    24    16    23 1
    25    16    24 1
    26    17    25 1
@<TRIPOS>SUBSTRUCTURE
     1 HM6         1 TEMP              0 ****  ****    0 ROOT
