@<TRIPOS>MOLECULE
HM6
   25    26     1     0     0
SMALL
bcc


@<TRIPOS>ATOM
      1 O2          0.7590   -1.7440    0.2180 o         1 HM6     -0.830300
      2 C1          1.1170   -0.5540   -0.0010 c         1 HM6      0.824600
      3 O1          0.7710    0.4410    0.6900 o         1 HM6     -0.830300
      4 C2          1.9780   -0.2940   -1.2540 ca        1 HM6      0.396800
      5 N1          3.3260   -0.2660   -1.1770 nb        1 HM6     -0.631000
      6 C3          1.2640   -0.1050   -2.4630 ca        1 HM6     -0.268300
      7 C4          1.9950    0.1200   -3.6380 ca        1 HM6     -0.016200
      8 C5          3.4000    0.1650   -3.5690 ca        1 HM6     -0.268300
      9 C6          4.0190   -0.0380   -2.3160 ca        1 HM6      0.396800
     10 C7          5.5600    0.0060   -2.3220 c         1 HM6      0.824600
     11 O4          6.1680   -1.0500   -2.6480 o         1 HM6     -0.830300
     12 O3          6.1180    1.1090   -2.0750 o         1 HM6     -0.830300
     13 N2          1.3450    0.2840   -4.9060 na        1 HM6      0.169300
     14 C8          1.9070   -0.0910   -6.1310 cc        1 HM6     -0.175600
     15 C9          0.9260    0.2620   -7.0810 cd        1 HM6      0.184600
     16 C10         0.9410    0.1270   -8.5500 c3        1 HM6      0.136100
     17 O5          2.0860   -0.6330   -8.9250 oh        1 HM6     -0.594800
     18 N4         -0.1540    0.8210   -6.3600 nd        1 HM6     -0.397000
     19 N3          0.1200    0.8190   -5.1150 nc        1 HM6     -0.168800
     20 H3          0.1680   -0.1420   -2.4470 ha        1 HM6      0.139000
     21 H5          4.0280    0.3510   -4.4480 ha        1 HM6      0.139000
     22 H8          2.8860   -0.5560   -6.2300 h4        1 HM6      0.207000
     23 H101        0.0140   -0.4010   -8.9110 h1        1 HM6      0.019700
     24 H102        0.9880    1.1430   -9.0340 h1        1 HM6      0.019700
     25 HC          2.1190   -0.6000   -9.8870 ho        1 HM6      0.384000
@<TRIPOS>BOND
     1    1    2 1   
     2    2    3 1   
     3    2    4 1   
     4    4    5 ar  
     5    4    6 ar  
     6    5    9 ar  
     7    6    7 ar  
     8    6   20 1   
     9    7    8 ar  
    10    7   13 1   
    11    8    9 ar  
    12    8   21 1   
    13    9   10 1   
    14   10   11 1   
    15   10   12 1   
    16   13   14 1   
    17   13   19 1   
    18   14   15 2   
    19   14   22 1   
    20   15   16 1   
    21   15   18 1   
    22   16   17 1   
    23   16   23 1   
    24   16   24 1   
    25   17   25 1   
    26   18   19 2   
@<TRIPOS>SUBSTRUCTURE
     1 HM6         1 TEMP              0 ****  ****    0 ROOT
