@<TRIPOS>MOLECULE
molecule
   25    25     1     0     0
SMALL
bcc


@<TRIPOS>ATOM
      1 CBS          0.0000     0.0000     0.0000 c3         1 HM7       0.026700
      2 CBR          1.5300     0.0000     0.0000 c3         1 HM7      -0.085700
      3 CAA          2.0320     0.0000     1.4210 cc         1 HM7       0.299000
      4 NAB          1.1700    -0.0000     2.4090 nd         1 HM7      -0.502300
      5 CAI          3.4120    -0.0070     1.6620 cc         1 HM7       0.617300
      6 OAJ          4.2710    -0.0110     0.6170 oh         1 HM7      -0.557600
      7 NAH          3.8860    -0.0060     2.8960 nd         1 HM7      -0.748100
      8 CAF          3.0420    -0.0000     3.9350 c          1 HM7       0.700700
      9 OAG          3.4670    -0.0000     5.0810 o          1 HM7      -0.515100
     10 CA           1.6010    -0.0000     3.6740 cd         1 HM7      -0.087600
     11 C            0.6800     0.0000     4.7460 c2         1 HM7       0.330700
     12 SAE         -1.0030     0.0000     4.4280 sh         1 HM7      -0.252400
     13 CBU         -2.4080     0.0000    -1.5060 c3         1 HM7       0.009000
     14 SBT         -0.6050     0.0000    -1.7100 ss         1 HM7      -0.371200
     15 OXT          1.1240     0.0000     6.0150 oh         1 HM7      -0.435100
     16 HBS1        -0.3610     0.8840     0.5110 h1         1 HM7       0.069200
     17 HBS2        -0.3610    -0.8840     0.5110 h1         1 HM7       0.069200
     18 HBR1         1.8910    -0.8840    -0.5110 hc         1 HM7       0.078200
     19 HBR2         1.8910     0.8840    -0.5110 hc         1 HM7       0.078200
     20 HAJ          5.1580    -0.0190     0.9390 ho         1 HM7       0.454000
     21 HAE         -1.6350    -0.6660     5.3860 hs         1 HM7       0.206800
     22 HBU1        -2.8820     0.0010    -2.4800 h1         1 HM7       0.059033
     23 HBU2        -2.7090    -0.8840    -0.9580 h1         1 HM7       0.059033
     24 HBU3        -2.7090     0.8850    -0.9570 h1         1 HM7       0.059033
     25 HXT          0.5220     0.4820     6.5590 ho         1 HM7       0.436000
@<TRIPOS>BOND
     1     1     2 1
     2     2     3 1
     3     3     4 2
     4     3     5 1
     5     4    10 1
     6     5     6 1
     7     5     7 2
     8     7     8 1
     9     8     9 2
    10     8    10 1
    11    10    11 2
    12    11    12 1
    13    11    15 1
    14     1    14 1
    15    13    14 1
    16     1    16 1
    17     1    17 1
    18     2    18 1
    19     2    19 1
    20     6    20 1
    21    12    21 1
    22    13    22 1
    23    13    23 1
    24    13    24 1
    25    15    25 1
@<TRIPOS>SUBSTRUCTURE
     1 HM7         1 TEMP              0 ****  ****    0 ROOT
