@<TRIPOS>MOLECULE
molecule
   16    15     1     0     0
SMALL
bcc


@<TRIPOS>ATOM
      1 N            0.0000     0.0000     0.0000 nz         1 HMA      -0.796600
      2 CA           1.4680     0.0000     0.0000 c3         1 HMA       0.030500
      3 CB           1.9780     0.0000     1.4420 c3         1 HMA      -0.116100
      4 C            1.9710    -1.2290    -0.7100 c          1 HMA       0.649100
      5 O            1.3160    -2.2480    -0.6940 o          1 HMA      -0.549100
      6 N2           3.1480    -1.1950    -1.3650 ns         1 HMA      -0.433400
      7 OH           3.6200    -2.3510    -2.0330 oh         1 HMA      -0.326100
      8 HN1         -0.3340    -0.1820    -0.9260 hn         1 HMA       0.467133
      9 HN2A        -0.3340    -0.7110     0.6210 hn         1 HMA       0.467133
     10 HA           1.8290     0.8850    -0.5100 hx         1 HMA       0.115700
     11 HB1          2.8950     0.5740     1.5010 hc         1 HMA       0.087033
     12 HB2          1.2320     0.4440     2.0890 hc         1 HMA       0.087033
     13 HB3          2.1700    -1.0190     1.7570 hc         1 HMA       0.087033
     14 HN2          3.7060    -0.3650    -1.3480 hn         1 HMA       0.336500
     15 HO           4.4220    -2.1480    -2.4850 ho         1 HMA       0.428000
     16 HN3         -0.3340     0.8890     0.3170 hn         1 HMA       0.467133
@<TRIPOS>BOND
     1     1     2 1
     2     1     8 1
     3     1     9 1
     4     2     3 1
     5     2     4 1
     6     2    10 1
     7     3    11 1
     8     3    12 1
     9     3    13 1
    10     4     5 2
    11     4     6 1
    12     6     7 1
    13     6    14 1
    14     7    15 1
    15    16     1 1
@<TRIPOS>SUBSTRUCTURE
     1 HMA         1 TEMP              0 ****  ****    0 ROOT
