@<TRIPOS>MOLECULE
molecule
   18    17     1     0     0
SMALL
bcc


@<TRIPOS>ATOM
      1 CA           0.0000     0.0000     0.0000 c3         1 HMB      -0.185400
      2 CB           1.5300     0.0000     0.0000 c3         1 HMB      -0.054400
      3 CG           2.0400     0.0000     1.4430 c3         1 HMB       0.326900
      4 C           -0.5030     0.0000    -1.4210 c          1 HMB       0.894600
      5 OD1          1.6620    -1.2210     2.0820 oh         1 HMB      -0.619800
      6 OD2          3.4640     0.1170     1.4440 os         1 HMB      -0.428600
      7 O            0.2820     0.0000    -2.3390 o          1 HMB      -0.853800
      8 HA1         -0.3610     0.8840     0.5110 hc         1 HMB       0.029700
      9 HA2         -0.3610    -0.8850     0.5110 hc         1 HMB       0.029700
     10 HB1          1.8910     0.8850    -0.5110 hc         1 HMB       0.067200
     11 HB2          1.8910    -0.8850    -0.5110 hc         1 HMB       0.067200
     12 HG           1.6080     0.8370     1.9780 h2         1 HMB       0.006700
     13 HE1          3.9070    -0.6900     3.2890 h1         1 HMB       0.019033
     14 HE2          5.0930     0.4620     2.6590 h1         1 HMB       0.019033
     15 HE3          3.5430     1.0410     3.2850 h1         1 HMB       0.019033
     16 O4          -1.8220     0.0010    -1.6660 o          1 HMB      -0.853800
     17 HD1          1.1910    -1.0280     2.8760 ho         1 HMB       0.388000
     18 CE           4.0370     0.2400     2.7480 c3         1 HMB       0.127700
@<TRIPOS>BOND
     1     1     2 1
     2     1     4 1
     3     1     8 1
     4     1     9 1
     5     2     3 1
     6     2    10 1
     7     2    11 1
     8     3     5 1
     9     3     6 1
    10     3    12 1
    11    18     6 1
    12    18    13 1
    13    18    14 1
    14    18    15 1
    15     4     7 1
    16     4    16 1
    17     5    17 1
@<TRIPOS>SUBSTRUCTURE
     1 HMB         1 TEMP              0 ****  ****    0 ROOT
