@<TRIPOS>MOLECULE
HMB
   18    16     1     0     0
SMALL
bcc


@<TRIPOS>ATOM
      1 CA          0.0020    0.7990   -0.8310 c3        1 HMB     -0.201400
      2 CB          1.4640    1.0190   -1.1050 c3        1 HMB     -0.076100
      3 CG          2.7310   -0.5660    2.2750 c2        1 HMB      0.316200
      4 C          -0.3080   -0.6900   -0.6500 c         1 HMB      0.915600
      5 OD1         2.8830   -1.3510    1.1700 oh        1 HMB     -0.578600
      6 OD2         1.6130    0.2110    2.3030 oh        1 HMB     -0.578600
      7 O          -0.9850   -1.2920   -1.5220 o         1 HMB     -0.854800
      8 HA1        -0.2940    1.3370    0.1060 hc        1 HMB      0.029200
      9 HA2         1.7640    0.5230   -2.0590 hc        1 HMB      0.020367
     10 HB1         2.0800    0.5860   -0.2760 hc        1 HMB      0.020367
     11 HB2        -0.6150    1.2020   -1.6740 hc        1 HMB      0.029200
     12 HG          1.6950    2.1090   -1.1860 hc        1 HMB      0.020367
     13 HE1         0.9490   -0.1040    1.6470 ho        1 HMB      0.490000
     14 HE2         4.5720   -1.1150    3.1830 ha        1 HMB      0.117000
     15 HE3         3.5530    0.1650    4.0930 ha        1 HMB      0.117000
     16 O4          0.1230   -1.2690    0.4050 o         1 HMB     -0.854800
     17 HD1         2.0170   -1.5120    0.7370 ho        1 HMB      0.490000
     18 CE          3.6700   -0.5050    3.2420 c2        1 HMB     -0.420000
@<TRIPOS>BOND
     1    1    2 1   
     2    1    4 1   
     3    1    8 1   
     4    1   11 1   
     5    2    9 1   
     6    2   10 1   
     7    2   12 1   
     8    3    5 1   
     9    3    6 1   
    10    3   18 2   
    11    4    7 1   
    12    4   16 1   
    13    5   17 1   
    14    6   13 1   
    15   14   18 1   
    16   15   18 1   
@<TRIPOS>SUBSTRUCTURE
     1 HMB         1 TEMP              0 ****  ****    0 ROOT
