@<TRIPOS>MOLECULE
HMC
   24    24     1     0     0
SMALL
bcc


@<TRIPOS>ATOM
      1 C1          0.1560    0.1430   -0.2170 c3        1 HMC      0.147300
      2 O1         -0.4200   -1.1500   -0.0750 oh        1 HMC     -0.596800
      3 C2          1.6750    0.0550    0.0100 c3        1 HMC      0.078100
      4 O2          2.2400   -1.1020   -0.5740 oh        1 HMC     -0.600800
      5 C3          1.9930    0.0750    1.5110 c3        1 HMC      0.079100
      6 O3          3.3880   -0.0100    1.7530 oh        1 HMC     -0.610800
      7 C4          1.5230    1.4050    2.1260 c3        1 HMC      0.178300
      8 O4          1.6200    1.3550    3.5430 oh        1 HMC     -0.601800
      9 C5          0.0970    1.6940    1.7510 c2        1 HMC     -0.093400
     10 C6         -0.4920    1.1400    0.6840 c2        1 HMC     -0.196200
     11 C7         -0.5830    2.6710    2.6520 c3        1 HMC      0.169600
     12 O7         -1.8850    2.9490    2.1560 oh        1 HMC     -0.605800
     13 H1         -0.0370    0.4040   -1.2990 h1        1 HMC      0.095700
     14 HO1        -0.5500   -1.3120    0.8670 ho        1 HMC      0.408000
     15 H2          2.1940    0.9150   -0.4980 h1        1 HMC      0.091700
     16 HO2         1.6060   -1.8270   -0.4730 ho        1 HMC      0.422000
     17 H3          1.4860   -0.7890    2.0260 h1        1 HMC      0.049700
     18 HO3         3.7450   -0.6490    1.1200 ho        1 HMC      0.430000
     19 H4          2.1830    2.2390    1.7440 h1        1 HMC      0.061700
     20 HO4         2.5240    1.0720    3.7410 ho        1 HMC      0.426000
     21 H6         -1.5330    1.3970    0.4200 ha        1 HMC      0.165000
     22 H71         0.0170    3.6220    2.6930 h1        1 HMC      0.049200
     23 H72        -0.6430    2.2330    3.6880 h1        1 HMC      0.049200
     24 HO7        -2.3160    3.4950    2.8240 ho        1 HMC      0.406000
@<TRIPOS>BOND
     1    1    2 1   
     2    1    3 1   
     3    1   10 1   
     4    1   13 1   
     5    2   14 1   
     6    3    4 1   
     7    3    5 1   
     8    3   15 1   
     9    4   16 1   
    10    5    6 1   
    11    5    7 1   
    12    5   17 1   
    13    6   18 1   
    14    7    8 1   
    15    7    9 1   
    16    7   19 1   
    17    8   20 1   
    18    9   10 2   
    19    9   11 1   
    20   10   21 1   
    21   11   12 1   
    22   11   22 1   
    23   11   23 1   
    24   12   24 1   
@<TRIPOS>SUBSTRUCTURE
     1 HMC         1 TEMP              0 ****  ****    0 ROOT
