@<TRIPOS>MOLECULE
molecule
   24    24     1     0     0
SMALL
bcc


@<TRIPOS>ATOM
      1 C1           0.0000     0.0000     0.0000 c3         1 HMC       0.167300
      2 O1          -0.4720    -1.2720     0.4450 oh         1 HMC      -0.580800
      3 C2           1.5300     0.0000     0.0000 c3         1 HMC       0.140100
      4 O2           2.0090    -1.1670    -0.6710 oh         1 HMC      -0.582800
      5 C3           2.0150     0.0000     1.4540 c3         1 HMC       0.129100
      6 O3           3.4330    -0.1730     1.4880 oh         1 HMC      -0.608800
      7 C4           1.6420     1.3430     2.0850 c3         1 HMC       0.179300
      8 O4           1.8600     1.2810     3.4960 oh         1 HMC      -0.600800
      9 C5           0.1950     1.6500     1.8270 c2         1 HMC      -0.118400
     10 C6          -0.5160     1.0700     0.9150 c2         1 HMC      -0.167200
     11 C7          -0.4660     2.7020     2.6790 c3         1 HMC       0.181600
     12 O7          -1.8290     2.8520     2.2770 oh         1 HMC      -0.616800
     13 H1          -0.3570     0.1880    -1.0050 h1         1 HMC       0.038700
     14 HO1         -1.2130    -1.5320    -0.0770 ho         1 HMC       0.403000
     15 H2           1.8920     0.8890    -0.5020 h1         1 HMC       0.044700
     16 HO2          2.4150    -0.9180    -1.4850 ho         1 HMC       0.401000
     17 H3           1.5310    -0.8030     1.9970 h1         1 HMC       0.083700
     18 HO3          3.6450    -0.9330     2.0060 ho         1 HMC       0.415000
     19 H4           2.2570     2.1240     1.6550 h1         1 HMC       0.049700
     20 HO4          2.6380     1.7650     3.7150 ho         1 HMC       0.406000
     21 H6          -1.5490     1.3760     0.8060 ha         1 HMC       0.157000
     22 H71         -0.4270     2.4020     3.7190 h1         1 HMC       0.037700
     23 H72          0.0520     3.6450     2.5560 h1         1 HMC       0.037700
     24 HO7         -2.2410     3.5160     2.8050 ho         1 HMC       0.406000
@<TRIPOS>BOND
     1     1     2 1
     2     1     3 1
     3     1    10 1
     4     1    13 1
     5     2    14 1
     6     3     4 1
     7     3     5 1
     8     3    15 1
     9     4    16 1
    10     5     6 1
    11     5     7 1
    12     5    17 1
    13     6    18 1
    14     7     8 1
    15     7     9 1
    16     7    19 1
    17     8    20 1
    18     9    10 2
    19     9    11 1
    20    10    21 1
    21    11    12 1
    22    11    22 1
    23    11    23 1
    24    12    24 1
@<TRIPOS>SUBSTRUCTURE
     1 HMC         1 TEMP              0 ****  ****    0 ROOT
