@<TRIPOS>MOLECULE
HMD
   30    32     1     0     0
SMALL
bcc


@<TRIPOS>ATOM
      1 Br1          0.0000     0.0000     0.0000 br         1 HMD      -0.012700
      2 O1           5.2180    -0.6240     2.6810 o          1 HMD      -0.609500
      3 O2           5.1100    -0.5190    -3.8200 o          1 HMD      -0.317100
      4 N1           2.6360     0.0000     1.1140 ne         1 HMD      -0.388300
      5 N2           5.8030     1.2930     1.7200 ns         1 HMD      -0.162900
      6 N3           4.0350     1.2560    -4.8060 nc         1 HMD      -0.472100
      7 N4           3.8120     2.5260    -3.0010 nd         1 HMD      -0.617000
      8 N5           2.9550     3.3470    -5.1040 nz         1 HMD       0.233400
      9 C1           1.8910     0.0000     0.0000 ce         1 HMD       0.189300
     10 C2           2.6360    -0.0020    -1.1140 c2         1 HMD      -0.278200
     11 C3           4.0640    -0.0320    -0.6160 c3         1 HMD      -0.099800
     12 C4           3.9090     0.0600     0.8710 cf         1 HMD       0.345300
     13 C5           5.0170     0.2120     1.8210 c          1 HMD       0.545200
     14 C6           5.4860     2.4210     0.9420 c3         1 HMD       0.031000
     15 C7           4.6070     2.4030    -0.2830 c3         1 HMD      -0.031400
     16 C8           4.8590     1.1670    -1.1640 c3         1 HMD      -0.040000
     17 C9           4.4150     1.4580    -2.5750 cc         1 HMD       0.480300
     18 C10          4.5860     0.5750    -3.7800 c          1 HMD       0.516200
     19 C11          3.5760     2.4060    -4.3440 cd         1 HMD       0.375200
     20 HN2          6.6650     1.2980     2.2270 hn         1 HMD       0.202500
     21 HN51         2.6390     2.9300    -5.9580 hn         1 HMD       0.228800
     22 HN52         2.1720     3.7160    -4.6030 hn         1 HMD       0.228800
     23 H2           2.3440    -0.6130    -1.9600 ha         1 HMD       0.149000
     24 H3           4.5420    -0.9640    -0.8910 hc         1 HMD       0.087700
     25 H61          5.0360     3.1350     1.6210 h1         1 HMD       0.017700
     26 H62          6.4330     2.8390     0.6230 h1         1 HMD       0.017700
     27 H71          4.8030     3.2950    -0.8660 hc         1 HMD       0.041700
     28 H72          3.5700     2.4040     0.0310 hc         1 HMD       0.041700
     29 H8           5.9160     0.9300    -1.1560 hc         1 HMD       0.069700
     30 H53          3.5970     4.0870    -5.3090 hn         1 HMD       0.228800
@<TRIPOS>BOND
     1     1     9 1   
     2     2    13 2   
     3     3    18 2   
     4     4     9 1   
     5     4    12 2   
     6     5    13 1   
     7     5    14 1   
     8     5    20 1   
     9     6    18 1   
    10     6    19 2   
    11     7    17 2   
    12     7    19 1   
    13     8    19 1   
    14     8    21 1   
    15     8    22 1   
    16     8    30 1   
    17     9    10 2   
    18    10    11 1   
    19    10    23 1   
    20    11    12 1   
    21    11    16 1   
    22    11    24 1   
    23    12    13 1   
    24    14    15 1   
    25    14    25 1   
    26    14    26 1   
    27    15    16 1   
    28    15    27 1   
    29    15    28 1   
    30    16    17 1   
    31    16    29 1   
    32    17    18 1   
@<TRIPOS>SUBSTRUCTURE
     1 HMD         1 TEMP              0 ****  ****    0 ROOT
