@<TRIPOS>MOLECULE
molecule
   19    19     1     0     0
SMALL
bcc


@<TRIPOS>ATOM
      1 CM2          0.0000     0.0000     0.0000 c3         1 HMH      -0.123400
      2 N1A          2.1480     0.0000     1.1510 nb         1 HMH      -0.783000
      3 C2A          1.5080     0.0000     0.0000 ca         1 HMH       0.726300
      4 N3A          2.1470    -0.0040    -1.1510 nb         1 HMH      -0.811000
      5 C4A          3.4760     0.0010    -1.1890 ca         1 HMH       0.738200
      6 N4A          4.1450     0.0010    -2.4020 nv         1 HMH      -1.004500
      7 C5A          4.1860     0.0000     0.0120 ca         1 HMH      -0.421900
      8 C6A          3.4730     0.0000     1.1950 ca         1 HMH       0.519200
      9 C7A          5.6920     0.0000     0.0200 c3         1 HMH       0.205700
     10 O1           6.1630     0.0000     1.3690 oh         1 HMH      -0.608800
     11 HCM1        -0.3610    -0.9640    -0.3370 hc         1 HMH       0.059367
     12 HCM2        -0.3610     0.1900     1.0040 hc         1 HMH       0.059367
     13 HCM3        -0.3610     0.7740    -0.6660 hc         1 HMH       0.059367
     14 HN41         3.6280    -0.0030    -3.2590 hn         1 HMH       0.442300
     15 HN42         5.1460     0.0050    -2.4220 hn         1 HMH       0.442300
     16 HC6          3.9900    -0.0000     2.1460 h4         1 HMH       0.048100
     17 HC71         6.0560     0.8840    -0.4890 h1         1 HMH       0.023200
     18 HC72         6.0560    -0.8840    -0.4890 h1         1 HMH       0.023200
     19 HO1          7.1050     0.0010     1.3730 ho         1 HMH       0.407000
@<TRIPOS>BOND
     1     1     3 1
     2     1    11 1
     3     1    12 1
     4     1    13 1
     5     2     3 ar
     6     2     8 ar
     7     3     4 ar
     8     4     5 ar
     9     5     6 1
    10     5     7 ar
    11     6    14 1
    12     6    15 1
    13     7     8 ar
    14     7     9 1
    15     8    16 1
    16     9    10 1
    17     9    17 1
    18     9    18 1
    19    10    19 1
@<TRIPOS>SUBSTRUCTURE
     1 HMH         1 TEMP              0 ****  ****    0 ROOT
