@<TRIPOS>MOLECULE
HMI
   24    23     1     0     0
SMALL
bcc


@<TRIPOS>ATOM
      1 N            0.0000     0.0000     0.0000 ns         1 HMI      -0.070400
      2 OH           1.4160     0.0000     0.0000 oh         1 HMI      -0.466100
      3 C1          -0.6740     0.0000     1.1680 c          1 HMI       0.612100
      4 O1          -0.0670    -0.0010     2.2180 o          1 HMI      -0.675100
      5 CA          -2.1810     0.0010     1.1680 c3         1 HMI      -0.231700
      6 CB          -2.6900    -0.0000     2.6100 c3         1 HMI       0.005600
      7 CG          -4.2140    -0.1290     2.6130 c3         1 HMI      -0.063700
      8 CD1         -4.6100    -1.5020     2.0660 c3         1 HMI       0.001900
      9 CD2         -4.7360     0.0190     4.0430 c3         1 HMI       0.001900
     10 C           -2.6830     1.2300     0.4580 c          1 HMI       0.978600
     11 O           -2.7940     2.2720     1.0610 o          1 HMI      -0.886800
     12 OXT         -3.0050     1.1700    -0.8430 o          1 HMI      -0.886800
     13 HN          -0.5000    -0.0460    -0.8660 hn         1 HMI       0.186500
     14 HOH          1.7310     0.0780    -0.8860 ho         1 HMI       0.377000
     15 HA          -2.5430    -0.8840     0.6570 hc         1 HMI       0.039700
     16 HB1         -2.2560    -0.8360     3.1460 hc         1 HMI       0.023700
     17 HB2         -2.4050     0.9260     3.0940 hc         1 HMI       0.023700
     18 HG          -4.6440     0.6460     1.9900 hc         1 HMI       0.062700
     19 HD11        -5.5430    -1.8160     2.5190 hc         1 HMI      -0.005800
     20 HD12        -3.8340    -2.2210     2.3010 hc         1 HMI      -0.005800
     21 HD13        -4.7330    -1.4400     0.9920 hc         1 HMI      -0.005800
     22 HD21        -4.4370     0.9820     4.4380 hc         1 HMI      -0.005800
     23 HD22        -4.3250    -0.7690     4.6610 hc         1 HMI      -0.005800
     24 HD23        -5.8170    -0.0500     4.0410 hc         1 HMI      -0.005800
@<TRIPOS>BOND
     1     1     2 1   
     2     1     3 1   
     3     1    13 1   
     4     2    14 1   
     5     3     4 2   
     6     3     5 1   
     7     5     6 1   
     8     5    10 1   
     9     5    15 1   
    10     6     7 1   
    11     6    16 1   
    12     6    17 1   
    13     7     8 1   
    14     7     9 1   
    15     7    18 1   
    16     8    19 1   
    17     8    20 1   
    18     8    21 1   
    19     9    22 1   
    20     9    23 1   
    21     9    24 1   
    22    10    11 1   
    23    10    12 1   
@<TRIPOS>SUBSTRUCTURE
     1 HMI         1 TEMP              0 ****  ****    0 ROOT
