@<TRIPOS>MOLECULE
HMK
   34    38     1     0     0
SMALL
bcc


@<TRIPOS>ATOM
      1 C1          0.0990   -0.2090   -0.2710 c3        1 HMK      0.115400
      2 O1          1.4650    0.0830    0.0270 os        1 HMK     -0.313900
      3 C2          1.7440    0.1180    1.3810 ca        1 HMK      0.166100
      4 C3          1.0980   -0.7310    2.2920 ca        1 HMK     -0.193300
      5 C4          0.1280   -1.7510    1.8180 c3        1 HMK      0.205400
      6 C5         -0.4090   -1.5060    0.3660 c3        1 HMK      0.169100
      7 C6          2.7430    1.0110    1.7920 ca        1 HMK     -0.240000
      8 C7          3.0740    1.0500    3.1510 ca        1 HMK      0.159100
      9 C8          2.4160    0.2320    4.0890 ca        1 HMK     -0.184000
     10 C9          1.4380   -0.6500    3.6490 ca        1 HMK     -0.042000
     11 O2         -1.0290   -1.7820    2.7160 os        1 HMK     -0.310900
     12 O5          0.0050   -2.6310   -0.3920 oh        1 HMK     -0.574800
     13 O6          4.0420    1.8890    3.6470 oh        1 HMK     -0.493100
     14 C10        -2.1690   -1.6160    1.9520 ca        1 HMK      0.149100
     15 C11        -1.9020   -1.4540    0.5740 ca        1 HMK     -0.224300
     16 C12        -3.4590   -1.6190    2.5070 ca        1 HMK     -0.133000
     17 C13        -4.4630   -1.4480    1.5680 ca        1 HMK      0.101100
     18 C14        -4.2070   -1.2870    0.1790 ca        1 HMK      0.013100
     19 C15        -2.9300   -1.2850   -0.3560 ca        1 HMK     -0.052000
     20 O3         -5.8320   -1.4060    1.7890 os        1 HMK     -0.328900
     21 C16        -6.4620   -1.2130    0.4990 c3        1 HMK      0.322200
     22 O4         -5.4180   -1.1400   -0.4960 os        1 HMK     -0.332900
     23 H11         0.0960   -0.2930   -1.3910 h1        1 HMK      0.070700
     24 H12A       -0.5380    0.6530    0.0610 h1        1 HMK      0.070700
     25 H4          0.5780   -2.7820    1.8810 h1        1 HMK      0.107700
     26 H6          3.2460    1.6510    1.0560 ha        1 HMK      0.153000
     27 H8          2.6880    0.3000    5.1510 ha        1 HMK      0.155000
     28 H9          0.9140   -1.2990    4.3690 ha        1 HMK      0.150000
     29 HO5        -0.5290   -2.6430   -1.1960 ho        1 HMK      0.410000
     30 HO6         4.4190    2.3860    2.9050 ho        1 HMK      0.423000
     31 H12        -3.6430   -1.7470    3.5790 ha        1 HMK      0.177000
     32 H15        -2.7430   -1.1600   -1.4290 ha        1 HMK      0.155000
     33 H161       -7.1040   -2.1010    0.2820 h2        1 HMK      0.074700
     34 H162       -7.0120   -0.2390    0.5150 h2        1 HMK      0.074700
@<TRIPOS>BOND
     1    1    2 1   
     2    1    6 1   
     3    1   23 1   
     4    1   24 1   
     5    2    3 1   
     6    3    4 ar  
     7    3    7 ar  
     8    4    5 1   
     9    4   10 ar  
    10    5    6 1   
    11    5   11 1   
    12    5   25 1   
    13    6   12 1   
    14    6   15 1   
    15    7    8 ar  
    16    7   26 1   
    17    8    9 ar  
    18    8   13 1   
    19    9   10 ar  
    20    9   27 1   
    21   10   28 1   
    22   11   14 1   
    23   12   29 1   
    24   13   30 1   
    25   14   15 ar  
    26   14   16 ar  
    27   15   19 ar  
    28   16   17 ar  
    29   16   31 1   
    30   17   18 ar  
    31   17   20 1   
    32   18   19 ar  
    33   18   22 1   
    34   19   32 1   
    35   20   21 1   
    36   21   22 1   
    37   21   33 1   
    38   21   34 1   
@<TRIPOS>SUBSTRUCTURE
     1 HMK         1 TEMP              0 ****  ****    0 ROOT
