@<TRIPOS>MOLECULE
molecule
   34    38     1     0     0
SMALL
bcc


@<TRIPOS>ATOM
      1 C1           0.0000     0.0000     0.0000 c3         1 HMK       0.103400
      2 O1           1.4250     0.0000     0.0000 os         1 HMK      -0.294900
      3 C2           1.8150     0.0000     1.3130 ca         1 HMK       0.140100
      4 C3           1.1530    -0.7470     2.2700 ca         1 HMK      -0.158300
      5 C4          -0.0620    -1.5730     1.9480 c3         1 HMK       0.211400
      6 C5          -0.5030    -1.3580     0.4860 c3         1 HMK       0.150100
      7 C6           2.9260     0.7560     1.6690 ca         1 HMK      -0.178000
      8 C7           3.3820     0.7530     2.9760 ca         1 HMK       0.139100
      9 C8           2.7180    -0.0000     3.9350 ca         1 HMK      -0.175000
     10 C9           1.6120    -0.7440     3.5810 ca         1 HMK      -0.064000
     11 O2          -1.1800    -1.0980     2.7210 os         1 HMK      -0.299900
     12 O5          -0.0750    -2.4250    -0.3630 oh         1 HMK      -0.569800
     13 O6           4.4720     1.4890     3.3210 oh         1 HMK      -0.520100
     14 C10         -2.3060    -1.1890     1.9800 ca         1 HMK       0.140100
     15 C11         -2.0140    -1.3260     0.6210 ca         1 HMK      -0.225300
     16 C12         -3.6290    -1.1540     2.4450 ca         1 HMK      -0.129000
     17 C13         -4.6050    -1.2580     1.4560 ca         1 HMK       0.087100
     18 C14         -4.2950    -1.3880     0.0960 ca         1 HMK       0.009100
     19 C15         -2.9790    -1.4280    -0.3690 ca         1 HMK      -0.046000
     20 O3          -5.9530    -1.2530     1.5960 os         1 HMK      -0.318900
     21 C16         -6.4720    -1.7750     0.3560 c3         1 HMK       0.330200
     22 O4          -5.4480    -1.4620    -0.6110 os         1 HMK      -0.321900
     23 H11         -0.3500     0.1610    -1.0130 h1         1 HMK       0.072200
     24 H12A        -0.3500     0.7670     0.6810 h1         1 HMK       0.072200
     25 H4           0.1220    -2.6220     2.1430 h1         1 HMK       0.098700
     26 H6           3.4420     1.3430     0.9190 ha         1 HMK       0.156000
     27 H8           3.0700    -0.0060     4.9590 ha         1 HMK       0.146000
     28 H9           1.0970    -1.3300     4.3310 ha         1 HMK       0.145000
     29 HO5         -0.3020    -2.2260    -1.2560 ho         1 HMK       0.413000
     30 HO6          5.2530     0.9800     3.1790 ho         1 HMK       0.424000
     31 H12         -3.8590    -0.6690     3.3860 ha         1 HMK       0.167000
     32 H15         -2.7530    -1.1150    -1.3810 ha         1 HMK       0.152000
     33 H161        -7.4010    -1.2810     0.0970 h2         1 HMK       0.072700
     34 H162        -6.6100    -2.8470     0.4260 h2         1 HMK       0.072700
@<TRIPOS>BOND
     1     1     2 1
     2     1     6 1
     3     1    23 1
     4     1    24 1
     5     2     3 1
     6     3     4 ar
     7     3     7 ar
     8     4     5 1
     9     4    10 ar
    10     5     6 1
    11     5    11 1
    12     5    25 1
    13     6    12 1
    14     6    15 1
    15     7     8 ar
    16     7    26 1
    17     8     9 ar
    18     8    13 1
    19     9    10 ar
    20     9    27 1
    21    10    28 1
    22    11    14 1
    23    12    29 1
    24    13    30 1
    25    14    15 ar
    26    14    16 ar
    27    15    19 ar
    28    16    17 ar
    29    16    31 1
    30    17    18 ar
    31    17    20 1
    32    18    19 ar
    33    18    22 1
    34    19    32 1
    35    20    21 1
    36    21    22 1
    37    21    33 1
    38    21    34 1
@<TRIPOS>SUBSTRUCTURE
     1 HMK         1 TEMP              0 ****  ****    0 ROOT
