@<TRIPOS>MOLECULE
HMM
   25    26     1     0     0
SMALL
bcc


@<TRIPOS>ATOM
      1 C31         0.0920    0.3850   -0.1080 c3        1 HMM      0.102300
      2 N07         1.4930    0.1290   -0.0250 n         1 HMM     -0.505400
      3 C08         2.2240   -0.0410    1.1830 c         1 HMM      0.738500
      4 O09         1.8260    0.2320    2.3210 o         1 HMM     -0.573500
      5 N10         3.5270   -0.6640    0.8570 n         1 HMM     -0.238400
      6 N11         3.5720   -0.8390   -0.5360 n         1 HMM     -0.255400
      7 C12         2.3040   -0.3280   -1.0970 c         1 HMM      0.745500
      8 O13         1.9940   -0.3510   -2.2940 o         1 HMM     -0.580500
      9 C14         4.6600   -0.0160    1.5410 c3        1 HMM      0.050200
     10 C15         5.5080    0.8680    0.6890 c2        1 HMM     -0.192200
     11 C16         5.5610    0.6880   -0.6330 c2        1 HMM     -0.173200
     12 C17         4.7630   -0.3950   -1.2980 c3        1 HMM      0.036900
     13 C18         5.6940   -1.6060   -1.5780 c3        1 HMM      0.141400
     14 O19         6.5100   -1.3270   -2.6940 oh        1 HMM     -0.593800
     15 H311       -0.1970    1.0770    0.7280 h1        1 HMM      0.060700
     16 H312       -0.1290    0.8610   -1.1000 h1        1 HMM      0.060700
     17 H313       -0.4970   -0.5670   -0.0170 h1        1 HMM      0.060700
     18 H141        5.2970   -0.8690    1.9230 h1        1 HMM      0.091700
     19 H142        4.2670    0.5480    2.4350 h1        1 HMM      0.091700
     20 H151        6.0860    1.6400    1.2160 ha        1 HMM      0.150000
     21 H161        6.1980    1.2810   -1.3040 ha        1 HMM      0.156000
     22 H171        4.3980   -0.0150   -2.3030 h1        1 HMM      0.092700
     23 H181        5.0940   -2.5390   -1.7460 h1        1 HMM      0.066700
     24 H182        6.4070   -1.7610   -0.7260 h1        1 HMM      0.066700
     25 HO19        5.9480   -1.3560   -3.4790 ho        1 HMM      0.404000
@<TRIPOS>BOND
     1    1    2 1   
     2    1   15 1   
     3    1   16 1   
     4    1   17 1   
     5    2    3 1   
     6    2    7 1   
     7    3    4 2   
     8    3    5 1   
     9    5    6 1   
    10    5    9 1   
    11    6    7 1   
    12    6   12 1   
    13    7    8 2   
    14    9   10 1   
    15    9   18 1   
    16    9   19 1   
    17   10   11 2   
    18   10   20 1   
    19   11   12 1   
    20   11   21 1   
    21   12   13 1   
    22   12   22 1   
    23   13   14 1   
    24   13   23 1   
    25   13   24 1   
    26   14   25 1   
@<TRIPOS>SUBSTRUCTURE
     1 HMM         1 TEMP              0 ****  ****    0 ROOT
