@<TRIPOS>MOLECULE
molecule
   41    40     1     0     0
SMALL
bcc


@<TRIPOS>ATOM
      1 C1           0.0000     0.0000     0.0000 c          1 HMN       0.871600
      2 O1A         -0.6040     0.0000     1.0460 o          1 HMN      -0.841300
      3 O1B         -0.6710    -0.0000    -1.1620 o          1 HMN      -0.841300
      4 C2           1.5060     0.0000     0.0000 c3         1 HMN       0.039100
      5 O2           1.9830     0.0000     1.3460 oh         1 HMN      -0.598800
      6 C3           2.0170     1.2490    -0.7230 c3         1 HMN      -0.059400
      7 C4           3.5470     1.2480    -0.7230 c3         1 HMN       0.124100
      8 O4           4.0240     1.2480     0.6240 oh         1 HMN      -0.593800
      9 C5           4.0560     2.4950    -1.4440 c3         1 HMN       0.084700
     10 N2           3.5400     3.6910    -0.7750 ns         1 HMN      -0.572900
     11 C10          2.5860     4.4370    -1.3670 c          1 HMN       0.656100
     12 O10          2.1460     4.1100    -2.4480 o          1 HMN      -0.606100
     13 C11          2.0660     5.6760    -0.6850 c3         1 HMN      -0.169100
     14 C6           5.5850     2.5150    -1.4130 c3         1 HMN       0.134100
     15 O6           6.0890     1.3480    -2.0670 oh         1 HMN      -0.590800
     16 C7           6.0970     3.7630    -2.1350 c3         1 HMN       0.145100
     17 O7           5.6480     3.7460    -3.4910 oh         1 HMN      -0.579800
     18 C8           7.6250     3.7820    -2.1050 c3         1 HMN       0.125100
     19 O8           8.0740     3.7990    -0.7490 oh         1 HMN      -0.608800
     20 C9           8.1360     5.0300    -2.8260 c3         1 HMN       0.110400
     21 O9           9.5640     5.0470    -2.7980 oh         1 HMN      -0.616800
     22 HC2          1.8670    -0.8850    -0.5100 h1         1 HMN       0.006700
     23 HO2          2.0530    -0.8880     1.6550 ho         1 HMN       0.375000
     24 HC31         1.6560     2.1340    -0.2130 hc         1 HMN       0.072700
     25 HC32         1.6560     1.2480    -1.7440 hc         1 HMN       0.072700
     26 HC4          3.9070     0.3630    -1.2330 h1         1 HMN       0.037700
     27 HO4          4.6080     0.5190     0.7500 ho         1 HMN       0.381000
     28 HC5          3.7160     2.4820    -2.4730 h1         1 HMN       0.119700
     29 HN2          3.8840     3.9460     0.1290 hn         1 HMN       0.318500
     30 H111         1.1970     5.4230    -0.0910 hc         1 HMN       0.055700
     31 H112         1.7920     6.4120    -1.4320 hc         1 HMN       0.055700
     32 H113         2.8370     6.0840    -0.0420 hc         1 HMN       0.055700
     33 HC6          5.9250     2.5270    -0.3850 h1         1 HMN       0.060700
     34 HO6          6.5510     0.8130    -1.4430 ho         1 HMN       0.393000
     35 HC7          5.7150     4.6480    -1.6390 h1         1 HMN       0.049700
     36 HO7          5.3830     4.6150    -3.7460 ho         1 HMN       0.398000
     37 HC8          8.0070     2.8970    -2.6000 h1         1 HMN       0.065700
     38 HO8          8.9090     3.3650    -0.6890 ho         1 HMN       0.411000
     39 HC91         7.7550     5.9150    -2.3300 h1         1 HMN       0.029700
     40 HC92         7.7950     5.0180    -3.8540 h1         1 HMN       0.029700
     41 HO9          9.8800     5.7720    -3.3110 ho         1 HMN       0.400000
@<TRIPOS>BOND
     1     1     2 1
     2     1     3 1
     3     1     4 1
     4     4     5 1
     5     4     6 1
     6     4    22 1
     7     5    23 1
     8     6     7 1
     9     6    24 1
    10     6    25 1
    11     7     8 1
    12     7     9 1
    13     7    26 1
    14     8    27 1
    15     9    10 1
    16     9    14 1
    17     9    28 1
    18    10    11 1
    19    10    29 1
    20    11    12 2
    21    11    13 1
    22    13    30 1
    23    13    31 1
    24    13    32 1
    25    14    15 1
    26    14    16 1
    27    14    33 1
    28    15    34 1
    29    16    17 1
    30    16    18 1
    31    16    35 1
    32    17    36 1
    33    18    19 1
    34    18    20 1
    35    18    37 1
    36    19    38 1
    37    20    21 1
    38    20    39 1
    39    20    40 1
    40    21    41 1
@<TRIPOS>SUBSTRUCTURE
     1 HMN         1 TEMP              0 ****  ****    0 ROOT
