@<TRIPOS>MOLECULE
HMO
   32    34     1     0     0
SMALL
bcc


@<TRIPOS>ATOM
      1 C1          0.1390   -0.0860   -0.0140 ca        1 HMO      0.177100
      2 C2          1.5300    0.1210   -0.0090 ca        1 HMO     -0.237000
      3 C3          2.1850    0.3350    1.1960 ca        1 HMO     -0.011000
      4 C4          1.4790    0.3470    2.4090 ca        1 HMO     -0.251600
      5 C5          0.0900    0.1350    2.3750 ca        1 HMO      0.167100
      6 C6         -0.6010   -0.0820    1.1780 ca        1 HMO     -0.192000
      7 C7          2.1740    0.5780    3.6850 c         1 HMO      0.601900
      8 C8          1.2980    0.5110    4.8690 cc        1 HMO     -0.196400
      9 C9         -0.0340    0.3090    4.7180 cd        1 HMO      0.077100
     10 O10        -0.6870    0.1310    3.5230 os        1 HMO     -0.217200
     11 C11         1.8630    0.6570    6.2070 ca        1 HMO     -0.074800
     12 C12         1.3720   -0.1250    7.2650 ca        1 HMO     -0.075000
     13 C13         1.8790    0.0110    8.5510 ca        1 HMO     -0.187500
     14 C14         2.9010    0.9460    8.7860 ca        1 HMO      0.129100
     15 C15         3.4100    1.7280    7.7400 ca        1 HMO     -0.187500
     16 C16         2.8900    1.5780    6.4580 ca        1 HMO     -0.075000
     17 O17         3.3610    1.0420   10.0790 oh        1 HMO     -0.497100
     18 O18         3.3900    0.8120    3.7350 o         1 HMO     -0.549100
     19 O19        -0.6080   -0.3060   -1.1510 os        1 HMO     -0.320900
     20 C20         0.1040   -0.3210   -2.3850 c3        1 HMO      0.111700
     21 H2          2.1030    0.1150   -0.9460 ha        1 HMO      0.146000
     22 H3          3.2750    0.5000    1.2220 ha        1 HMO      0.163000
     23 H6         -1.6870   -0.2440    1.1700 ha        1 HMO      0.171000
     24 H9         -0.7770    0.2650    5.5340 h4        1 HMO      0.184000
     25 H12         0.5810   -0.8670    7.0750 ha        1 HMO      0.143000
     26 H13         1.4990   -0.5990    9.3820 ha        1 HMO      0.143500
     27 H15         4.2160    2.4510    7.9290 ha        1 HMO      0.143500
     28 H16         3.3010    2.1760    5.6280 ha        1 HMO      0.143000
     29 H17         4.0730    1.6980   10.0940 ho        1 HMO      0.420000
     30 H201        0.5930    0.6670   -2.5680 h1        1 HMO      0.050033
     31 H202        0.8600   -1.1430   -2.3930 h1        1 HMO      0.050033
     32 H203       -0.6980   -0.5130   -3.1420 h1        1 HMO      0.050033
@<TRIPOS>BOND
     1    1    2 ar
     2    1    6 ar
     3    1   19 1
     4    2    3 ar
     5    2   21 1
     6    3    4 ar
     7    3   22 1
     8    4    5 ar
     9    4    7 1
    10    5    6 ar
    11    5   10 1
    12    6   23 1
    13    7    8 1
    14    7   18 2
    15    8    9 2
    16    8   11 1
    17    9   10 1
    18    9   24 1
    19   11   12 ar
    20   11   16 ar
    21   12   13 ar
    22   12   25 1
    23   13   14 ar
    24   13   26 1
    25   14   15 ar
    26   14   17 1
    27   15   16 ar
    28   15   27 1
    29   16   28 1
    30   17   29 1
    31   19   20 1
    32   20   30 1
    33   20   31 1
    34   20   32 1
@<TRIPOS>SUBSTRUCTURE
     1 HMO         1 TEMP              0 ****  ****    0 ROOT
