@<TRIPOS>MOLECULE
molecule
   24    23     1     0     0
SMALL
bcc


@<TRIPOS>ATOM
      1 C1           0.0000     0.0000     0.0000 c          1 HMP       0.700100
      2 O1          -0.6060     0.9090    -0.5260 o          1 HMP      -0.628100
      3 C2           1.5070     0.0000     0.0000 c3         1 HMP      -0.240700
      4 C3           2.0090     0.0000     1.4190 c          1 HMP       0.890600
      5 O3           2.1210     1.0430     2.0200 o          1 HMP      -0.837300
      6 O4           2.3310    -1.1570     2.0180 o          1 HMP      -0.837300
      7 C1'          2.0160     1.2480    -0.7220 c3         1 HMP      -0.038400
      8 C2'          3.5410     1.1860    -0.8350 c3         1 HMP      -0.076700
      9 C3'          3.9360     0.0260    -1.7510 c3         1 HMP      -0.087600
     10 C4'          4.0630     2.4980    -1.4220 c3         1 HMP      -0.087600
     11 N           -0.6740    -1.0110     0.5840 ns         1 HMP      -0.470400
     12 O5          -2.0900    -1.0110     0.5850 oh         1 HMP      -0.395100
     13 H2           1.8680    -0.8850    -0.5100 hc         1 HMP       0.060700
     14 H1'1         1.7320     2.1310    -0.1620 hc         1 HMP       0.048200
     15 H1'2         1.5820     1.2950    -1.7130 hc         1 HMP       0.048200
     16 H2'          3.9700     1.0340     0.1470 hc         1 HMP       0.083700
     17 H3'1         4.0590    -0.8740    -1.1600 hc         1 HMP       0.023700
     18 H3'2         4.8680     0.2600    -2.2500 hc         1 HMP       0.023700
     19 H3'3         3.1600    -0.1310    -2.4900 hc         1 HMP       0.023700
     20 H4'1         5.1450     2.4680    -1.4660 hc         1 HMP       0.023700
     21 H4'2         3.6640     2.6310    -2.4210 hc         1 HMP       0.023700
     22 H4'3         3.7500     3.3240    -0.7950 hc         1 HMP       0.023700
     23 HN          -0.1740    -1.7840     0.9770 hn         1 HMP       0.342500
     24 HO5         -2.4050    -1.7640     1.0560 ho         1 HMP       0.381000
@<TRIPOS>BOND
     1     1     2 2
     2     1     3 1
     3     1    11 1
     4     3     4 1
     5     3     7 1
     6     3    13 1
     7     4     5 1
     8     4     6 1
     9     7     8 1
    10     7    14 1
    11     7    15 1
    12     8     9 1
    13     8    10 1
    14     8    16 1
    15     9    17 1
    16     9    18 1
    17     9    19 1
    18    10    20 1
    19    10    21 1
    20    10    22 1
    21    11    12 1
    22    11    23 1
    23    12    24 1
@<TRIPOS>SUBSTRUCTURE
     1 HMP         1 TEMP              0 ****  ****    0 ROOT
