@<TRIPOS>MOLECULE
molecule
   21    21     1     0     0
SMALL
bcc


@<TRIPOS>ATOM
      1 O5           0.0000     0.0000     0.0000 o          1 HMQ      -0.560100
      2 C5           1.2170     0.0000     0.0000 c          1 HMQ       0.569500
      3 C6           1.9790     0.0000     1.2620 ce         1 HMQ      -0.261200
      4 C4           1.9790    -0.0060    -1.2630 ce         1 HMQ      -0.221200
      5 C3           3.2640     0.3230    -1.2500 c2         1 HMQ      -0.156200
      6 C2           3.9910     0.7200    -0.0040 c3         1 HMQ       0.411000
      7 O6           4.1750     2.1370    -0.0120 os         1 HMQ      -0.237800
      8 O7           4.8500     2.6460    -1.2130 oh         1 HMQ      -0.444000
      9 O2           5.2740     0.0910    -0.0010 oh         1 HMQ      -0.537800
     10 C1           3.2650     0.3300     1.2460 c2         1 HMQ       0.037600
     11 C7           4.0280     0.3100     2.5460 c3         1 HMQ      -0.159200
     12 C8           4.7280    -1.0160     2.6960 c          1 HMQ       0.903600
     13 OD1          4.6210    -1.8580     1.8360 o          1 HMQ      -0.836800
     14 OD2          5.4750    -1.2610     3.7850 o          1 HMQ      -0.836800
     15 H6           1.4630    -0.1180     2.2070 ha         1 HMQ       0.160000
     16 H4           1.5330    -0.4160    -2.1620 ha         1 HMQ       0.137000
     17 H3           3.8120     0.3020    -2.1840 ha         1 HMQ       0.125000
     18 H2           5.7210     0.2830    -0.8090 ho         1 HMQ       0.394000
     19 H71C         3.3400     0.4500     3.3710 hc         1 HMQ       0.050700
     20 H72C         4.7610     1.1080     2.5470 hc         1 HMQ       0.050700
     21 H7L          4.9230     3.5850    -1.1580 ho         1 HMQ       0.411000
@<TRIPOS>BOND
     1     1     2 2
     2     2     3 1
     3     2     4 1
     4     3    10 2
     5     4     5 2
     6     5     6 1
     7     6     7 1
     8     6     9 1
     9     6    10 1
    10     7     8 1
    11    10    11 1
    12    11    12 1
    13    12    13 1
    14    12    14 1
    15     3    15 1
    16     4    16 1
    17     5    17 1
    18     9    18 1
    19    11    19 1
    20    11    20 1
    21     8    21 1
@<TRIPOS>SUBSTRUCTURE
     1 HMQ         1 TEMP              0 ****  ****    0 ROOT
