@<TRIPOS>MOLECULE
HMQ
   21    21     1     0     0
SMALL
bcc


@<TRIPOS>ATOM
      1 O5         -0.0070   -0.7640    0.1030 o         1 HMQ     -0.568100
      2 C5          1.1430   -0.3010    0.0280 c         1 HMQ      0.569500
      3 C6          2.0100   -0.1420    1.1980 ce        1 HMQ     -0.270200
      4 C4          1.7040    0.1430   -1.2640 ce        1 HMQ     -0.242200
      5 C3          2.9420    0.6310   -1.3640 c2        1 HMQ     -0.098200
      6 C2          3.8680    0.7680   -0.1830 c3        1 HMQ      0.362000
      7 O6          4.2690    2.1740   -0.0390 os        1 HMQ     -0.232800
      8 O7          5.0370    2.5660   -0.9910 oh        1 HMQ     -0.403000
      9 O2          5.0830    0.1540   -0.5140 oh        1 HMQ     -0.646800
     10 C1          3.2590    0.3590    1.1410 c2        1 HMQ      0.000600
     11 C7          4.0930    0.5430    2.3460 c3        1 HMQ     -0.208200
     12 C8          4.9030   -0.7270    2.7280 c         1 HMQ      0.924600
     13 OD1         5.8220   -1.0950    1.9380 o         1 HMQ     -0.821800
     14 OD2         4.6260   -1.2880    3.8160 o         1 HMQ     -0.821800
     15 H6          1.5830   -0.4710    2.1600 ha        1 HMQ      0.160000
     16 H4          1.0400    0.0470   -2.1360 ha        1 HMQ      0.135000
     17 H3          3.3790    0.9730   -2.3150 ha        1 HMQ      0.142000
     18 H2          5.4650   -0.2710    0.2850 ho        1 HMQ      0.494000
     19 H71C        4.8310    1.3710    2.1760 hc        1 HMQ      0.059200
     20 H72C        3.4470    0.8110    3.2200 hc        1 HMQ      0.059200
     21 H7L         5.9130    2.1220   -0.8900 ho        1 HMQ      0.407000
@<TRIPOS>BOND
     1    1    2 2   
     2    2    3 1   
     3    2    4 1   
     4    3   10 2   
     5    3   15 1   
     6    4    5 2   
     7    4   16 1   
     8    5    6 1   
     9    5   17 1   
    10    6    7 1   
    11    6    9 1   
    12    6   10 1   
    13    7    8 1   
    14    8   21 1   
    15    9   18 1   
    16   10   11 1   
    17   11   12 1   
    18   11   19 1   
    19   11   20 1   
    20   12   13 1   
    21   12   14 1   
@<TRIPOS>SUBSTRUCTURE
     1 HMQ         1 TEMP              0 ****  ****    0 ROOT
