@<TRIPOS>MOLECULE
molecule
   78    82     1     0     0
SMALL
bcc


@<TRIPOS>ATOM
      1 C18          0.0000     0.0000     0.0000 c3         1 HMT       0.129700
      2 O3           1.4290     0.0000     0.0000 os         1 HMT      -0.309900
      3 C2           2.0450     0.0000     1.2100 c2         1 HMT       0.073900
      4 C1           1.4160    -0.0010     2.3690 c2         1 HMT      -0.317200
      5 C9           2.4130     0.0050     3.4930 c3         1 HMT       0.216400
      6 C12          2.5730    -1.4720     3.9620 c3         1 HMT      -0.089400
      7 C11          2.1150    -1.4610     5.4390 c3         1 HMT      -0.084400
      8 C10          1.2190    -0.1960     5.4880 c3         1 HMT       0.139800
      9 N1           2.0250     0.7670     4.6680 n3         1 HMT      -0.680600
     10 C8           1.2120     1.9650     4.4260 c3         1 HMT       0.171800
     11 C7           1.5250     2.5790     3.0730 c3         1 HMT      -0.058100
     12 C6           2.9930     2.8610     2.9390 ca         1 HMT      -0.047300
     13 C16          3.3000     4.2370     2.8910 ca         1 HMT      -0.127000
     14 C15          4.6250     4.6110     2.7900 ca         1 HMT       0.049100
     15 O2           5.1920     5.8390     2.7310 os         1 HMT      -0.327900
     16 C17          6.5150     5.6180     2.1940 c3         1 HMT       0.329200
     17 O1           6.8330     4.2740     2.6180 os         1 HMT      -0.322900
     18 C14          5.6390     3.6440     2.7200 ca         1 HMT       0.049100
     19 C13          5.3290     2.2990     2.7580 ca         1 HMT      -0.087000
     20 C5           3.9750     1.9310     2.8660 ca         1 HMT      -0.044300
     21 C4           3.7470     0.4390     2.8880 c3         1 HMT       0.015600
     22 C3           3.5450    -0.0030     1.4090 c3         1 HMT       0.193300
     23 O4           4.1830     0.9300     0.4970 os         1 HMT      -0.381900
     24 C19          4.5830     0.4450    -0.6890 c          1 HMT       0.653100
     25 O5           4.4070    -0.7200    -0.9560 o          1 HMT      -0.535000
     26 C20          5.2520     1.3540    -1.6880 c3         1 HMT       0.133800
     27 C21          4.1870     2.0800    -2.5110 c3         1 HMT      -0.155400
     28 C22          4.8560     3.0170    -3.4840 c          1 HMT       0.648100
     29 O8           6.0530     3.1700    -3.4500 o          1 HMT      -0.572000
     30 O7           4.1190     3.6810    -4.3900 os         1 HMT      -0.422900
     31 C23          4.8120     4.6530    -5.2170 c3         1 HMT       0.137700
     32 O6           6.0560     2.3120    -0.9960 oh         1 HMT      -0.594800
     33 C24          6.1380     0.5230    -2.6200 c3         1 HMT      -0.115400
     34 C25          7.2350    -0.1610    -1.8030 c3         1 HMT      -0.080400
     35 C26          8.1870    -0.9000    -2.7470 c3         1 HMT      -0.063400
     36 C27          9.2080    -1.6900    -1.9260 c3         1 HMT       0.147800
     37 C28         10.1410    -2.4520    -2.8690 c3         1 HMT      -0.120600
     38 C29         10.0280    -0.7260    -1.0660 c3         1 HMT      -0.120600
     39 O9           8.5240    -2.6180    -1.0810 oh         1 HMT      -0.600800
     40 H18         -0.3610     0.0100    -1.0210 h1         1 HMT       0.042367
     41 H18A        -0.3610    -0.8890     0.5020 h1         1 HMT       0.042367
     42 H18B        -0.3610     0.8790     0.5190 h1         1 HMT       0.042367
     43 H1           0.4810    -0.5370     2.4780 ha         1 HMT       0.147000
     44 H12          1.9370    -2.1240     3.3760 hc         1 HMT       0.050700
     45 H12A         3.6090    -1.7790     3.8920 hc         1 HMT       0.050700
     46 H11          1.5390    -2.3490     5.6700 hc         1 HMT       0.052700
     47 H11A         2.9640    -1.3570     6.1040 hc         1 HMT       0.052700
     48 H10          0.2570    -0.3850     5.0270 h1         1 HMT       0.044700
     49 H10A         1.1090     0.1610     6.5050 h1         1 HMT       0.044700
     50 H8           0.1640     1.6920     4.4570 h1         1 HMT       0.038700
     51 H8A          1.4180     2.6930     5.2010 h1         1 HMT       0.038700
     52 H7           1.2240     1.8900     2.2930 hc         1 HMT       0.064700
     53 H7A          0.9750     3.5060     2.9690 hc         1 HMT       0.064700
     54 H16          2.5490     4.9690     3.1620 ha         1 HMT       0.143000
     55 H17          7.2190     6.3250     2.6150 h2         1 HMT       0.068200
     56 H17A         6.5010     5.6810     1.1120 h2         1 HMT       0.068200
     57 H13          6.1050     1.5690     2.9530 ha         1 HMT       0.145000
     58 H4           4.5780    -0.0850     3.3440 hc         1 HMT       0.085700
     59 H3           3.9370    -1.0020     1.2640 h1         1 HMT       0.093700
     60 H21          3.5950     1.3550    -3.0570 hc         1 HMT       0.095200
     61 H21A         3.5430     2.6470    -1.8490 hc         1 HMT       0.095200
     62 H23          4.0980     5.1580    -5.8560 h1         1 HMT       0.051367
     63 H23A         5.5490     4.1460    -5.8290 h1         1 HMT       0.051367
     64 H23B         5.3080     5.3790    -4.5840 h1         1 HMT       0.051367
     65 HO6          6.6310     2.7400    -1.6080 ho         1 HMT       0.435000
     66 H24          5.5360    -0.2280    -3.1170 hc         1 HMT       0.068700
     67 H24A         6.5910     1.1720    -3.3610 hc         1 HMT       0.068700
     68 H25          6.7860    -0.8680    -1.1170 hc         1 HMT       0.063200
     69 H25A         7.7870     0.5840    -1.2440 hc         1 HMT       0.063200
     70 H26          7.6210    -1.5810    -3.3710 hc         1 HMT       0.047700
     71 H26A         8.7050    -0.1830    -3.3730 hc         1 HMT       0.047700
     72 H28         10.8760    -2.9960    -2.2890 hc         1 HMT       0.041867
     73 H28A        10.6450    -1.7510    -3.5230 hc         1 HMT       0.041867
     74 H28B         9.5640    -3.1490    -3.4640 hc         1 HMT       0.041867
     75 H29         10.9630    -1.1960    -0.7890 hc         1 HMT       0.041867
     76 H29A         9.4700    -0.4760    -0.1720 hc         1 HMT       0.041867
     77 H29B        10.2300     0.1770    -1.6290 hc         1 HMT       0.041867
     78 HO9          9.1170    -3.3040    -0.8220 ho         1 HMT       0.400000
@<TRIPOS>BOND
     1     1    40 1
     2     1    41 1
     3     1    42 1
     4     2     1 1
     5     2     3 1
     6     3     4 2
     7     4     5 1
     8     4    43 1
     9     5     9 1
    10     6     5 1
    11     6     7 1
    12     6    44 1
    13     6    45 1
    14     7     8 1
    15     7    46 1
    16     7    47 1
    17     8    48 1
    18     8    49 1
    19     9     8 1
    20     9    10 1
    21    10    50 1
    22    10    51 1
    23    11    10 1
    24    11    52 1
    25    11    53 1
    26    12    11 1
    27    12    13 ar
    28    13    54 1
    29    14    13 ar
    30    14    15 1
    31    16    15 1
    32    16    55 1
    33    16    56 1
    34    17    16 1
    35    18    14 ar
    36    18    17 1
    37    19    18 ar
    38    19    20 ar
    39    19    57 1
    40    20    12 ar
    41    21     5 1
    42    21    20 1
    43    21    58 1
    44    22     3 1
    45    22    21 1
    46    22    23 1
    47    22    59 1
    48    24    23 1
    49    24    26 1
    50    25    24 2
    51    26    33 1
    52    26    27 1
    53    27    60 1
    54    27    61 1
    55    28    27 1
    56    28    30 1
    57    29    28 2
    58    31    30 1
    59    31    62 1
    60    31    63 1
    61    31    64 1
    62    32    26 1
    63    32    65 1
    64    33    66 1
    65    33    67 1
    66    34    33 1
    67    34    35 1
    68    34    68 1
    69    34    69 1
    70    35    70 1
    71    35    71 1
    72    36    35 1
    73    36    39 1
    74    37    36 1
    75    37    72 1
    76    37    73 1
    77    37    74 1
    78    38    36 1
    79    38    75 1
    80    38    76 1
    81    38    77 1
    82    39    78 1
@<TRIPOS>SUBSTRUCTURE
     1 HMT         1 TEMP              0 ****  ****    0 ROOT
