@<TRIPOS>MOLECULE
HMU
   16    16     1     0     0
SMALL
bcc


@<TRIPOS>ATOM
      1 N1           0.0000     0.0000     0.0000 ns         1 HMU       0.018900
      2 C2           1.3460     0.0000     0.0000 c          1 HMU       0.570500
      3 O2           1.9440    -0.0010    -1.0580 o          1 HMU      -0.702500
      4 N3           2.0360     0.0000     1.1540 ns         1 HMU      -0.120500
      5 C4           1.3880     0.0050     2.3350 c          1 HMU       0.625700
      6 O3          -2.1830     0.0020     3.4000 oh         1 HMU      -0.613800
      7 O4           2.0130     0.0060     3.3800 o          1 HMU      -0.665500
      8 C5          -0.0270     0.0010     2.3500 cc         1 HMU      -0.306400
      9 CM5         -0.7780     0.0020     3.6570 c3         1 HMU       0.320600
     10 C6          -0.6960     0.0000     1.1770 cd         1 HMU      -0.086400
     11 H1          -0.4960    -0.0010    -0.8690 hn         1 HMU       0.191500
     12 H2           3.0370    -0.0000     1.1350 hn         1 HMU       0.207500
     13 H3          -2.6520     0.0020     4.2170 ho         1 HMU       0.401000
     14 HM51        -0.5140    -0.8820     4.2250 h1         1 HMU       0.003700
     15 HM52        -0.5150     0.8870     4.2240 h1         1 HMU       0.003700
     16 H6          -1.7790    -0.0020     1.1690 h4         1 HMU       0.153000
@<TRIPOS>BOND
     1     1     2 1   
     2     1    10 1   
     3     1    11 1   
     4     2     3 2   
     5     2     4 1   
     6     4     5 1   
     7     4    12 1   
     8     5     7 2   
     9     5     8 1   
    10     6     9 1   
    11     6    13 1   
    12     8     9 1   
    13     8    10 2   
    14     9    14 1   
    15     9    15 1   
    16    10    16 1   
@<TRIPOS>SUBSTRUCTURE
     1 HMU         1 TEMP              0 ****  ****    0 ROOT
