@<TRIPOS>MOLECULE
molecule
   41    42     1     0     0
SMALL
bcc


@<TRIPOS>ATOM
      1 C1           0.0000     0.0000     0.0000 ca         1 HMX       0.368000
      2 N1           2.0650     0.0000     1.1480 nb         1 HMX      -0.748000
      3 C2           1.4000     0.0000     0.0000 ca         1 HMX       0.629900
      4 N2          -0.6620     0.0040     1.1380 nb         1 HMX      -0.618000
      5 C3           1.4020    -0.0010     2.2980 ca         1 HMX       0.714900
      6 C4          -0.0010     0.0040     2.2940 ca         1 HMX       0.125500
      7 C5          -0.7440     0.0030     3.5700 c          1 HMX       0.563000
      8 C6           1.7220    -1.1680    -2.0250 c3         1 HMX       0.148300
      9 C7           1.9060    -0.9370    -3.4530 c3         1 HMX      -0.082900
     10 C8           3.3830    -0.6390    -3.7950 c3         1 HMX      -0.082400
     11 C9           3.6940     0.7810    -3.4080 c3         1 HMX      -0.082400
     12 C10          4.2570     0.9070    -1.9770 c3         1 HMX      -0.082900
     13 C11          3.5160     0.0010    -0.9750 c3         1 HMX       0.148300
     14 C12         -2.6690    -1.0420     4.2980 c2         1 HMX       0.447100
     15 O1          -0.1440     0.1030     4.6260 o          1 HMX      -0.555100
     16 N5          -2.0810    -0.1080     3.5680 ne         1 HMX      -0.386100
     17 N7          -1.9150    -1.9640     4.9620 nz         1 HMX      -0.757600
     18 N6          -4.0300    -1.0810     4.3880 nz         1 HMX      -0.757600
     19 Cl1         -0.8660    -0.0000    -1.5040 cl         1 HMX      -0.059000
     20 N3           2.0930    -0.0020     3.4980 nv         1 HMX      -0.999500
     21 N4           2.0910     0.0010    -1.2000 nh         1 HMX      -0.627300
     22 H1           0.6810    -1.4070    -1.8430 h1         1 HMX       0.064200
     23 H2           2.3350    -2.0100    -1.7280 h1         1 HMX       0.064200
     24 H3           1.2970    -0.0930    -3.7540 hc         1 HMX       0.065700
     25 H4           1.5900    -1.8190    -3.9960 hc         1 HMX       0.065700
     26 H5           3.5410    -0.7670    -4.8590 hc         1 HMX       0.057700
     27 H6           4.0260    -1.3130    -3.2430 hc         1 HMX       0.057700
     28 H7           2.7840     1.3670    -3.4750 hc         1 HMX       0.057700
     29 H8           4.4220     1.1790    -4.1040 hc         1 HMX       0.057700
     30 H9           5.3050     0.6320    -1.9890 hc         1 HMX       0.065700
     31 H10          4.1630     1.9370    -1.6540 hc         1 HMX       0.065700
     32 H11          3.8870    -1.0120    -1.0760 h1         1 HMX       0.064200
     33 H12          3.7130     0.3550     0.0300 h1         1 HMX       0.064200
     34 H14         -1.4140    -1.5160     5.7030 hn         1 HMX       0.499133
     35 H15         -2.5130    -2.6700     5.3440 hn         1 HMX       0.499133
     36 H16         -4.3670    -1.9280     3.9770 hn         1 HMX       0.499133
     37 H17          2.8070    -0.6830     3.6640 hn         1 HMX       0.474800
     38 H18          1.8760     0.6780     4.2000 hn         1 HMX       0.474800
     39 H13         -4.4190    -0.2970     3.9030 hn         1 HMX       0.499133
     40 H73         -1.2740    -2.3930     4.3240 hn         1 HMX       0.499133
     41 H63         -4.3000    -1.1060     5.3510 hn         1 HMX       0.499133
@<TRIPOS>BOND
     1    20     5 1
     2    15     7 2
     3     5     2 ar
     4     5     6 ar
     5    18    14 1
     6     7     6 1
     7     7    16 1
     8     2     3 ar
     9     6     4 ar
    10    12    13 1
    11    12    11 1
    12    14    16 2
    13    14    17 1
    14    13    21 1
    15     3    21 1
    16     3     1 ar
    17    11    10 1
    18     4     1 ar
    19    21     8 1
    20     1    19 1
    21    10     9 1
    22     8     9 1
    23     8    22 1
    24     8    23 1
    25     9    24 1
    26     9    25 1
    27    10    26 1
    28    10    27 1
    29    11    28 1
    30    11    29 1
    31    12    30 1
    32    12    31 1
    33    13    32 1
    34    13    33 1
    35    17    34 1
    36    17    35 1
    37    18    36 1
    38    20    37 1
    39    20    38 1
    40    18    39 1
    41    40    17 1
    42    41    18 1
@<TRIPOS>SUBSTRUCTURE
     1 HMX         1 TEMP              0 ****  ****    0 ROOT
