@<TRIPOS>MOLECULE
HMX
   41    42     1     0     0
SMALL
bcc


@<TRIPOS>ATOM
      1 C1           0.0000     0.0000     0.0000 ca         1 HMX       0.235000
      2 N1           2.0650     0.0000     1.1480 nb         1 HMX      -0.656000
      3 C2           1.4000     0.0000     0.0000 ca         1 HMX       0.485900
      4 N2          -0.6620     0.0040     1.1380 nb         1 HMX      -0.498000
      5 C3           1.4020    -0.0010     2.2980 ca         1 HMX       0.494900
      6 C4          -0.0010     0.0040     2.2940 ca         1 HMX       0.109500
      7 C5          -0.7440     0.0030     3.5700 c          1 HMX       0.523000
      8 C6           1.7220    -1.1680    -2.0250 c3         1 HMX       0.090300
      9 C7           1.9060    -0.9370    -3.4530 c3         1 HMX      -0.027900
     10 C8           3.3830    -0.6390    -3.7950 c3         1 HMX      -0.030400
     11 C9           3.6940     0.7810    -3.4080 c3         1 HMX      -0.030400
     12 C10          4.2570     0.9070    -1.9770 c3         1 HMX      -0.027900
     13 C11          3.5160     0.0010    -0.9750 c3         1 HMX       0.090300
     14 C12         -2.6690    -1.0420     4.2980 c2         1 HMX      -0.164900
     15 O1          -0.1440     0.1030     4.6260 o          1 HMX      -0.639100
     16 N5          -2.0810    -0.1080     3.5680 ne         1 HMX      -0.183100
     17 N7          -1.9150    -1.9640     4.9620 nz         1 HMX       0.212900
     18 N6          -4.0300    -1.0810     4.3880 nz         1 HMX       0.212900
     19 Cl1         -0.8660    -0.0000    -1.5040 cl         1 HMX       0.081000
     20 N3           2.0930    -0.0020     3.4980 nv         1 HMX      -0.408500
     21 N4           2.0910     0.0010    -1.2000 nh         1 HMX      -0.320300
     22 H1           0.6810    -1.4070    -1.8430 h1         1 HMX       0.042950
     23 H2           2.3360    -2.0100    -1.7280 h1         1 HMX       0.042950
     24 H3           1.2970    -0.0930    -3.7540 hc         1 HMX       0.033950
     25 H4           1.5900    -1.8190    -3.9960 hc         1 HMX       0.033950
     26 H5           3.5410    -0.7670    -4.8590 hc         1 HMX       0.030450
     27 H6           4.0260    -1.3130    -3.2430 hc         1 HMX       0.030450
     28 H7           4.4230     1.1790    -4.1040 hc         1 HMX       0.030450
     29 H8           2.7840     1.3670    -3.4750 hc         1 HMX       0.030450
     30 H9           5.3050     0.6320    -1.9890 hc         1 HMX       0.033950
     31 H10          4.1630     1.9370    -1.6540 hc         1 HMX       0.033950
     32 H11          3.8870    -1.0120    -1.0760 h1         1 HMX       0.042950
     33 H12          3.7130     0.3550     0.0300 h1         1 HMX       0.042950
     34 H14         -2.5130    -2.6710     5.3430 hn         1 HMX       0.234800
     35 H15         -1.2650    -2.3840     4.3270 hn         1 HMX       0.234800
     36 H16         -4.4190    -0.2960     3.9040 hn         1 HMX       0.234800
     37 H17          2.8420    -0.6490     3.6430 hn         1 HMX       0.305800
     38 H18          1.8420     0.6440     4.2190 hn         1 HMX       0.305800
     39 H13         -4.3020    -1.0480     5.3510 hn         1 HMX       0.234800
     40 H73         -1.3880    -1.5110     5.6820 hn         1 HMX       0.234800
     41 H63         -4.3640    -1.9510     4.0240 hn         1 HMX       0.234800
@<TRIPOS>BOND
     1     1     3 ar  
     2     1     4 ar  
     3     1    19 1   
     4     2     3 ar  
     5     2     5 ar  
     6     3    21 1   
     7     4     6 ar  
     8     5     6 ar  
     9     5    20 1   
    10     6     7 1   
    11     7    15 2   
    12     7    16 1   
    13     8     9 1   
    14     8    21 1   
    15     8    22 1   
    16     8    23 1   
    17     9    10 1   
    18     9    24 1   
    19     9    25 1   
    20    10    11 1   
    21    10    26 1   
    22    10    27 1   
    23    11    12 1   
    24    11    28 1   
    25    11    29 1   
    26    12    13 1   
    27    12    30 1   
    28    12    31 1   
    29    13    21 1   
    30    13    32 1   
    31    13    33 1   
    32    14    16 2   
    33    14    17 1   
    34    14    18 1   
    35    17    34 1   
    36    17    35 1   
    37    17    40 1   
    38    18    36 1   
    39    18    39 1   
    40    18    41 1   
    41    20    37 1   
    42    20    38 1   
@<TRIPOS>SUBSTRUCTURE
     1 HMX         1 TEMP              0 ****  ****    0 ROOT
