@<TRIPOS>MOLECULE
HMY
   49    51     1     0     0
SMALL
bcc


@<TRIPOS>ATOM
      1 O23         0.4680    1.1580    0.7350 o         1 HMY     -0.536000
      2 C7          1.3070    0.3310    0.3760 c         1 HMY      0.672700
      3 O8          1.7840   -0.5940    1.2580 os        1 HMY     -0.426900
      4 C9          1.4530   -0.5420    2.6550 c3        1 HMY      0.166100
      5 C25         1.6660    0.8220    3.2710 c3        1 HMY     -0.129100
      6 C10         0.0870   -1.1540    2.9460 c3        1 HMY     -0.088200
      7 C11        -1.0790   -0.3730    2.4730 c2        1 HMY     -0.110200
      8 C12        -2.1680   -0.9090    1.9170 ce        1 HMY     -0.250200
      9 C2          1.9030    0.1920   -0.9690 ca        1 HMY     -0.167600
     10 C1          3.2290    0.6080   -1.1850 ca        1 HMY      0.203100
     11 O20         3.9170    1.0810   -0.0950 oh        1 HMY     -0.485100
     12 C6          3.8140    0.5580   -2.4600 ca        1 HMY     -0.293000
     13 C5          3.0450    0.0870   -3.5260 ca        1 HMY      0.186100
     14 O21         3.4930   -0.0070   -4.8240 os        1 HMY     -0.316900
     15 C22         4.8220    0.4430   -5.0710 c3        1 HMY      0.110700
     16 C4          1.7180   -0.3420   -3.3290 ca        1 HMY     -0.180000
     17 C3          1.1560   -0.3010   -2.0550 ca        1 HMY      0.022700
     18 C18        -0.2230   -0.7900   -1.8420 cx        1 HMY      0.097400
     19 O31        -1.1270   -0.6770   -2.9580 os        1 HMY     -0.400600
     20 C17        -0.7180   -2.0010   -2.5730 cx        1 HMY      0.077100
     21 C16        -1.7890   -2.9530   -2.1400 c3        1 HMY     -0.110400
     22 C15        -2.5630   -2.6600   -0.8640 c3        1 HMY      0.129100
     23 O29        -3.2140   -1.4070   -0.8430 oh        1 HMY     -0.599800
     24 C14        -1.6650   -2.8530    0.3790 c3        1 HMY      0.009100
     25 O28        -1.3370   -4.2250    0.5070 oh        1 HMY     -0.590800
     26 C13        -2.3540   -2.3390    1.6360 c         1 HMY      0.564300
     27 O24        -3.0280   -3.1080    2.3280 o         1 HMY     -0.527100
     28 H9          2.2350   -1.2550    3.0690 h1        1 HMY      0.073700
     29 H25         2.6570    1.2270    2.9530 hc        1 HMY      0.056033
     30 H25A        1.6490    0.7300    4.3840 hc        1 HMY      0.056033
     31 H25B        0.8770    1.5460    2.9580 hc        1 HMY      0.056033
     32 H10         0.0040   -1.2660    4.0630 hc        1 HMY      0.066700
     33 H10A        0.0680   -2.1880    2.5020 hc        1 HMY      0.066700
     34 H11        -1.0120    0.7210    2.6080 ha        1 HMY      0.152000
     35 H12        -3.0240   -0.2880    1.5950 ha        1 HMY      0.167000
     36 HO20        4.8090    1.3290   -0.3830 ho        1 HMY      0.428000
     37 H6          4.8510    0.8900   -2.6000 ha        1 HMY      0.147000
     38 H22         5.5580   -0.1730   -4.5000 h1        1 HMY      0.049367
     39 H22A        4.9450    0.2860   -6.1730 h1        1 HMY      0.049367
     40 H22B        4.9260    1.5240   -4.8130 h1        1 HMY      0.049367
     41 H4          1.1270   -0.6880   -4.1910 ha        1 HMY      0.168000
     42 H18        -0.6770   -0.4820   -0.8740 h1        1 HMY      0.115700
     43 H17        -0.0200   -2.4690   -3.3050 h1        1 HMY      0.096700
     44 H16        -2.5300   -3.0190   -2.9850 hc        1 HMY      0.080700
     45 H16A       -1.3140   -3.9650   -2.0080 hc        1 HMY      0.080700
     46 H15        -3.4080   -3.4120   -0.7850 h1        1 HMY      0.075700
     47 HO29       -2.7260   -0.7900   -1.4030 ho        1 HMY      0.422000
     48 H14        -0.6740   -2.3350    0.2430 h1        1 HMY      0.094700
     49 HO28       -2.1000   -4.6720    0.9030 ho        1 HMY      0.420000
@<TRIPOS>BOND
     1    1    2 2
     2    2    3 1
     3    2    9 1
     4    3    4 1
     5    4    5 1
     6    4    6 1
     7    4   28 1
     8    5   29 1
     9    5   30 1
    10    5   31 1
    11    6    7 1
    12    6   32 1
    13    6   33 1
    14    7    8 2
    15    7   34 1
    16    8   26 1
    17    8   35 1
    18    9   10 ar
    19    9   17 ar
    20   10   11 1
    21   10   12 ar
    22   11   36 1
    23   12   13 ar
    24   12   37 1
    25   13   14 1
    26   13   16 ar
    27   14   15 1
    28   15   38 1
    29   15   39 1
    30   15   40 1
    31   16   17 ar
    32   16   41 1
    33   17   18 1
    34   18   19 1
    35   18   20 1
    36   18   42 1
    37   19   20 1
    38   20   21 1
    39   20   43 1
    40   21   22 1
    41   21   44 1
    42   21   45 1
    43   22   23 1
    44   22   24 1
    45   22   46 1
    46   23   47 1
    47   24   25 1
    48   24   26 1
    49   24   48 1
    50   25   49 1
    51   26   27 2
@<TRIPOS>SUBSTRUCTURE
     1 HMY         1 TEMP              0 ****  ****    0 ROOT
