@<TRIPOS>MOLECULE
molecule
   27    27     1     0     0
SMALL
bcc


@<TRIPOS>ATOM
      1 CAA          0.0000     0.0000     0.0000 c3         1 HMZ       0.129700
      2 OAB          1.9920    -0.0010     8.6590 o          1 HMZ      -0.857800
      3 OAC          5.1510    -0.0000     5.0720 o          1 HMZ      -0.522100
      4 OAD          3.7970    -0.0010     9.9340 o          1 HMZ      -0.857800
      5 OAE          5.4140    -0.0010     2.5860 oh         1 HMZ      -0.476100
      6 CAF          1.2820     0.0010     2.3750 ca         1 HMZ      -0.258000
      7 CAG          1.8870     0.0000     3.5970 ca         1 HMZ      -0.028000
      8 CAH          3.4290     0.0000     1.2790 ca         1 HMZ      -0.249000
      9 CAI          4.0300    -0.0010     7.4760 c3         1 HMZ      -0.173400
     10 CAJ          3.1090    -0.0000     6.2550 c3         1 HMZ      -0.155400
     11 OAK          1.4300     0.0000     0.0000 os         1 HMZ      -0.334900
     12 CAL          3.1970    -0.0020     8.7330 c          1 HMZ       0.890600
     13 CAM          3.9400     0.0000     4.9980 c          1 HMZ       0.560700
     14 CAN          2.0440     0.0010     1.2100 ca         1 HMZ       0.170100
     15 CAO          4.0600    -0.0000     2.5120 ca         1 HMZ       0.196100
     16 CAP          3.2860     0.0010     3.6870 ca         1 HMZ      -0.219600
     17 HAA         -0.3610    -0.0000    -1.0210 h1         1 HMZ       0.039700
     18 HAAA        -0.3610     0.8850     0.5100 h1         1 HMZ       0.039700
     19 HAAB        -0.3610    -0.8840     0.5110 h1         1 HMZ       0.039700
     20 HOAE         5.7560    -0.7100     2.0670 ho         1 HMZ       0.415000
     21 HAF          0.2000     0.0000     2.3100 ha         1 HMZ       0.132000
     22 HAG          1.2870    -0.0000     4.4980 ha         1 HMZ       0.159000
     23 HAH          4.0180     0.0000     0.3690 ha         1 HMZ       0.140000
     24 HAI          4.6550    -0.8850     7.4560 hc         1 HMZ       0.042700
     25 HAIA         4.6550     0.8840     7.4570 hc         1 HMZ       0.042700
     26 HAJ          2.4830     0.8840     6.2740 hc         1 HMZ       0.066700
     27 HAJA         2.4830    -0.8850     6.2740 hc         1 HMZ       0.066700
@<TRIPOS>BOND
     1     1    11 1
     2     2    12 1
     3     3    13 2
     4     4    12 1
     5     5    15 1
     6     6     7 ar
     7     6    14 ar
     8     7    16 ar
     9     8    14 ar
    10     8    15 ar
    11     9    10 1
    12     9    12 1
    13    10    13 1
    14    11    14 1
    15    13    16 1
    16    15    16 ar
    17     1    17 1
    18     1    18 1
    19     1    19 1
    20     5    20 1
    21     6    21 1
    22     7    22 1
    23     8    23 1
    24     9    24 1
    25     9    25 1
    26    10    26 1
    27    10    27 1
@<TRIPOS>SUBSTRUCTURE
     1 HMZ         1 TEMP              0 ****  ****    0 ROOT
