@<TRIPOS>MOLECULE
HMZ
   27    27     1     0     0
SMALL
bcc


@<TRIPOS>ATOM
      1 CAA        -0.2530   -0.4710    0.7210 c3        1 HMZ      0.116700
      2 OAB         1.2520    0.3120    6.9180 o         1 HMZ     -0.845800
      3 OAC         5.8500    0.0160    4.7920 o         1 HMZ     -0.560100
      4 OAD         2.0420   -0.2660    8.9240 o         1 HMZ     -0.845800
      5 OAE         5.5180    0.3490    2.2280 oh        1 HMZ     -0.469100
      6 CAF         1.4450   -0.1710    2.9230 ca        1 HMZ     -0.251000
      7 CAG         2.3340   -0.0170    3.9860 ca        1 HMZ     -0.025000
      8 CAH         3.2970    0.0070    1.3510 ca        1 HMZ     -0.286000
      9 CAI         3.5480   -0.4130    7.0510 c3        1 HMZ     -0.194400
     10 CAJ         4.0630    0.7420    6.2160 c3        1 HMZ     -0.160400
     11 OAK         1.1400   -0.3070    0.4840 os        1 HMZ     -0.340900
     12 CAL         2.1820   -0.0920    7.6830 c         1 HMZ      0.907600
     13 CAM         4.6440    0.2730    4.9090 c         1 HMZ      0.589700
     14 CAN         1.9300   -0.1610    1.6110 ca        1 HMZ      0.164100
     15 CAO         4.1730    0.1560    2.4350 ca        1 HMZ      0.188100
     16 CAP         3.7090    0.1390    3.7690 ca        1 HMZ     -0.226600
     17 HAA        -0.6720    0.4220    1.2440 h1        1 HMZ      0.041033
     18 HAAA       -0.6850   -0.5670   -0.3070 h1        1 HMZ      0.041033
     19 HAAB       -0.4450   -1.3970    1.3170 h1        1 HMZ      0.041033
     20 HOAE        5.6800    0.3000    1.2740 ho        1 HMZ      0.403000
     21 HAF         0.3750   -0.2950    3.1390 ha        1 HMZ      0.144000
     22 HAG         1.9290   -0.0140    5.0300 ha        1 HMZ      0.236000
     23 HAH         3.6630    0.0200    0.3170 ha        1 HMZ      0.136000
     24 HAI         4.2810   -0.6580    7.8590 hc        1 HMZ      0.034200
     25 HAIA        3.4170   -1.3290    6.4200 hc        1 HMZ      0.034200
     26 HAJ         3.2250    1.4640    6.0180 hc        1 HMZ      0.063700
     27 HAJA        4.8610    1.2910    6.7820 hc        1 HMZ      0.063700
@<TRIPOS>BOND
     1    1   11 1   
     2    1   17 1   
     3    1   18 1   
     4    1   19 1   
     5    2   12 1   
     6    3   13 2   
     7    4   12 1   
     8    5   15 1   
     9    5   20 1   
    10    6    7 ar  
    11    6   14 ar  
    12    6   21 1   
    13    7   16 ar  
    14    7   22 1   
    15    8   14 ar  
    16    8   15 ar  
    17    8   23 1   
    18    9   10 1   
    19    9   12 1   
    20    9   24 1   
    21    9   25 1   
    22   10   13 1   
    23   10   26 1   
    24   10   27 1   
    25   11   14 1   
    26   13   16 1   
    27   15   16 ar  
@<TRIPOS>SUBSTRUCTURE
     1 HMZ         1 TEMP              0 ****  ****    0 ROOT
