@<TRIPOS>MOLECULE
HN2
   42    44     1     0     0
SMALL
bcc


@<TRIPOS>ATOM
      1 O10          0.0000     0.0000     0.0000 o          1 HN2      -0.558100
      2 C10          1.2120     0.0000     0.0000 c          1 HN2       0.637700
      3 C11          1.9490     0.0000     1.2750 ca         1 HN2      -0.190600
      4 C16          1.2530     0.0010     2.4880 ca         1 HN2      -0.049500
      5 C15          1.9490     0.0020     3.6780 ca         1 HN2      -0.116500
      6 C14          3.3330     0.0020     3.6740 ca         1 HN2      -0.069000
      7 C13          4.0290     0.0010     2.4780 ca         1 HN2      -0.116500
      8 C12          3.3470    -0.0050     1.2790 ca         1 HN2      -0.049500
      9 C9           1.9660    -0.0070    -1.3050 c3         1 HN2      -0.190400
     10 C5           0.9780     0.1290    -2.4650 c3         1 HN2       0.149500
     11 C6           0.3170     1.5150    -2.4270 c3         1 HN2      -0.028400
     12 C7           1.3620     2.6160    -2.6020 c3         1 HN2      -0.067400
     13 C8           2.1920     2.3770    -3.8730 c3         1 HN2       0.204100
     14 O8           3.2280     3.3570    -3.9670 oh         1 HN2      -0.594800
     15 C8A          2.8040     0.9870    -3.7680 c3         1 HN2       0.089500
     16 C1           3.6140     0.5700    -5.0000 c3         1 HN2       0.195100
     17 O1           3.1510     1.2640    -6.1610 oh         1 HN2      -0.547800
     18 N4           1.6850     0.0080    -3.7320 n3         1 HN2      -0.512600
     19 C3           2.3430    -1.2820    -3.9980 c3         1 HN2       0.125800
     20 C2           3.3450    -0.9510    -5.1340 c3         1 HN2       0.158100
     21 O2           2.7670    -1.2430    -6.4090 oh         1 HN2      -0.545800
     22 H16          0.1700     0.0010     2.4920 ha         1 HN2       0.114500
     23 H15          1.4120     0.0020     4.6190 ha         1 HN2       0.107000
     24 H14          3.8740     0.0040     4.6120 ha         1 HN2       0.102000
     25 H13          5.1130    -0.0010     2.4830 ha         1 HN2       0.107000
     26 H12          3.8930    -0.0060     0.3430 ha         1 HN2       0.114500
     27 H9           2.5110    -0.9380    -1.4020 hc         1 HN2       0.054700
     28 H9A          2.6620     0.8230    -1.3240 hc         1 HN2       0.054700
     29 H5           0.2170    -0.6390    -2.3970 h1         1 HN2       0.053700
     30 H6          -0.1800     1.6450    -1.4730 hc         1 HN2       0.035200
     31 H6A         -0.4100     1.5840    -3.2260 hc         1 HN2       0.035200
     32 H7           2.0210     2.6210    -1.7430 hc         1 HN2       0.018200
     33 H7A          0.8610     3.5730    -2.6800 hc         1 HN2       0.018200
     34 H8           1.5500     2.4290    -4.7440 h1         1 HN2       0.039700
     35 HO8          2.8880     4.1340    -4.3800 ho         1 HN2       0.393000
     36 H8A          3.4070     0.9040    -2.8720 h1         1 HN2       0.031700
     37 H1           4.6690     0.7530    -4.8370 h1         1 HN2       0.004700
     38 HO1          3.8810     1.4460    -6.7290 ho         1 HN2       0.382000
     39 H3           1.6190    -2.0160    -4.3320 h1         1 HN2       0.020200
     40 H3A          2.8690    -1.6290    -3.1170 h1         1 HN2       0.020200
     41 H2           4.2650    -1.5070    -4.9960 h1         1 HN2      -0.003300
     42 HO2          3.1770    -2.0100    -6.7720 ho         1 HN2       0.376000
@<TRIPOS>BOND
     1     1     2 2   
     2     2     3 1   
     3     2     9 1   
     4     3     4 ar  
     5     3     8 ar  
     6     4     5 ar  
     7     4    22 1   
     8     5     6 ar  
     9     5    23 1   
    10     6     7 ar  
    11     6    24 1   
    12     7     8 ar  
    13     7    25 1   
    14     8    26 1   
    15     9    10 1   
    16     9    27 1   
    17     9    28 1   
    18    10    11 1   
    19    10    18 1   
    20    10    29 1   
    21    11    12 1   
    22    11    30 1   
    23    11    31 1   
    24    12    13 1   
    25    12    32 1   
    26    12    33 1   
    27    13    14 1   
    28    13    15 1   
    29    13    34 1   
    30    14    35 1   
    31    15    16 1   
    32    15    18 1   
    33    15    36 1   
    34    16    17 1   
    35    16    20 1   
    36    16    37 1   
    37    17    38 1   
    38    18    19 1   
    39    19    20 1   
    40    19    39 1   
    41    19    40 1   
    42    20    21 1   
    43    20    41 1   
    44    21    42 1   
@<TRIPOS>SUBSTRUCTURE
     1 HN2         1 TEMP              0 ****  ****    0 ROOT
