@<TRIPOS>MOLECULE
molecule
   45    47     1     0     0
SMALL
bcc


@<TRIPOS>ATOM
      1 O10          0.0000     0.0000     0.0000 o          1 HN3      -0.531100
      2 C10          1.2130     0.0000     0.0000 c          1 HN3       0.584700
      3 C11          1.9490     0.0000     1.2740 ca         1 HN3      -0.186600
      4 C16          1.2540    -0.0000     2.4870 ca         1 HN3      -0.075000
      5 C15          1.9520     0.0010     3.6770 ca         1 HN3      -0.144000
      6 C14          3.3370     0.0010     3.6720 ca         1 HN3      -0.052300
      7 C17          4.0910     0.0010     4.9760 c3         1 HN3      -0.053800
      8 C13          4.0320     0.0010     2.4740 ca         1 HN3      -0.144000
      9 C12          3.3480    -0.0050     1.2770 ca         1 HN3      -0.075000
     10 C9           1.9660    -0.0070    -1.3060 c3         1 HN3      -0.227400
     11 C5           0.9770     0.1290    -2.4650 c3         1 HN3       0.179500
     12 C6           0.3160     1.5160    -2.4260 c3         1 HN3      -0.072400
     13 C7           1.3600     2.6170    -2.6020 c3         1 HN3      -0.115400
     14 C8           2.1900     2.3780    -3.8740 c3         1 HN3       0.165100
     15 O8           3.2250     3.3590    -3.9680 oh         1 HN3      -0.615800
     16 C8A          2.8010     0.9880    -3.7690 c3         1 HN3       0.149500
     17 C1           3.6110     0.5720    -5.0030 c3         1 HN3       0.157100
     18 O1           3.1480     1.2660    -6.1620 oh         1 HN3      -0.566800
     19 N4           1.6840     0.0090    -3.7340 n3         1 HN3      -0.684600
     20 C3           2.3410    -1.2800    -3.9990 c3         1 HN3       0.133800
     21 C2           3.3430    -0.9490    -5.1370 c3         1 HN3       0.117100
     22 O2           2.7640    -1.2400    -6.4100 oh         1 HN3      -0.566800
     23 H16          0.1710    -0.0000     2.4930 ha         1 HN3       0.142500
     24 H15          1.4160     0.0010     4.6180 ha         1 HN3       0.135500
     25 H17          5.1290    -0.2460     4.7930 hc         1 HN3       0.047033
     26 H17A         4.0270     0.9830     5.4300 hc         1 HN3       0.047033
     27 H17B         3.6570    -0.7330     5.6440 hc         1 HN3       0.047033
     28 H13          5.1150    -0.0010     2.4780 ha         1 HN3       0.135500
     29 H12          3.8930    -0.0050     0.3410 ha         1 HN3       0.142500
     30 H9           2.6620     0.8240    -1.3260 hc         1 HN3       0.073200
     31 H9A          2.5120    -0.9370    -1.4040 hc         1 HN3       0.073200
     32 H5           0.2160    -0.6400    -2.3970 h1         1 HN3       0.084700
     33 H6          -0.1810     1.6460    -1.4730 hc         1 HN3       0.063200
     34 H6A         -0.4120     1.5850    -3.2260 hc         1 HN3       0.063200
     35 H7           0.8590     3.5740    -2.6790 hc         1 HN3       0.044700
     36 H7A          2.0200     2.6220    -1.7430 hc         1 HN3       0.044700
     37 H8           1.5480     2.4310    -4.7450 h1         1 HN3       0.073700
     38 HO8          2.8880     4.1320    -4.3890 ho         1 HN3       0.406000
     39 H8A          3.4050     0.9050    -2.8730 h1         1 HN3       0.044700
     40 H1           4.6660     0.7550    -4.8400 h1         1 HN3       0.040700
     41 HO1          3.8780     1.4470    -6.7320 ho         1 HN3       0.398000
     42 H3           2.8670    -1.6270    -3.1180 h1         1 HN3       0.047700
     43 H3A          1.6170    -2.0140    -4.3330 h1         1 HN3       0.047700
     44 H2           4.2630    -1.5050    -4.9990 h1         1 HN3       0.030700
     45 HO2          3.1850    -1.9970    -6.7820 ho         1 HN3       0.392000
@<TRIPOS>BOND
     1     1     2 2
     2     2     3 1
     3     2    10 1
     4     3     4 ar
     5     3     9 ar
     6     4     5 ar
     7     5     6 ar
     8     6     7 1
     9     6     8 ar
    10     8     9 ar
    11    10    11 1
    12    11    12 1
    13    11    19 1
    14    12    13 1
    15    13    14 1
    16    14    15 1
    17    14    16 1
    18    16    17 1
    19    16    19 1
    20    17    18 1
    21    17    21 1
    22    19    20 1
    23    20    21 1
    24    21    22 1
    25     4    23 1
    26     5    24 1
    27     7    25 1
    28     7    26 1
    29     7    27 1
    30     8    28 1
    31     9    29 1
    32    10    30 1
    33    10    31 1
    34    11    32 1
    35    12    33 1
    36    12    34 1
    37    13    35 1
    38    13    36 1
    39    14    37 1
    40    15    38 1
    41    16    39 1
    42    17    40 1
    43    18    41 1
    44    20    42 1
    45    20    43 1
    46    21    44 1
    47    22    45 1
@<TRIPOS>SUBSTRUCTURE
     1 HN3         1 TEMP              0 ****  ****    0 ROOT
