@<TRIPOS>MOLECULE
molecule
   54    56     1     0     0
SMALL
bcc


@<TRIPOS>ATOM
      1 O10          0.0000     0.0000     0.0000 o          1 HN4      -0.531100
      2 C10          1.2120     0.0000     0.0000 c          1 HN4       0.584700
      3 C11          1.9490     0.0000     1.2740 ca         1 HN4      -0.187600
      4 C12          1.2530    -0.0010     2.4880 ca         1 HN4      -0.077000
      5 C13          1.9500    -0.0020     3.6770 ca         1 HN4      -0.143500
      6 C14          3.3340    -0.0010     3.6730 ca         1 HN4      -0.039300
      7 C17          4.0880    -0.0010     4.9780 c3         1 HN4      -0.029700
      8 C18          3.7190    -1.2520     5.7790 c3         1 HN4      -0.081100
      9 C19          5.5920    -0.0000     4.6980 c3         1 HN4      -0.081100
     10 C20          3.7180     1.2470     5.7810 c3         1 HN4      -0.081100
     11 C15          4.0300    -0.0000     2.4760 ca         1 HN4      -0.143500
     12 C16          3.3470    -0.0060     1.2780 ca         1 HN4      -0.077000
     13 C9           1.9660    -0.0060    -1.3050 c3         1 HN4      -0.227400
     14 C5           0.9780     0.1300    -2.4660 c3         1 HN4       0.185500
     15 N4           1.6790    -0.0240    -3.7310 n3         1 HN4      -0.700600
     16 C3           2.2580    -1.3370    -4.0190 c3         1 HN4       0.146800
     17 C2           3.4690    -1.0730    -4.9480 c3         1 HN4       0.112100
     18 O2           3.2450    -1.6540    -6.2340 oh         1 HN4      -0.576800
     19 C1           3.5570     0.4730    -5.0620 c3         1 HN4       0.155100
     20 O1           2.8940     0.9360    -6.2410 oh         1 HN4      -0.565800
     21 C8A          2.8130     0.9330    -3.7960 c3         1 HN4       0.152500
     22 C8           2.2200     2.3320    -3.9220 c3         1 HN4       0.161100
     23 O8           3.2690     3.2950    -4.0430 oh         1 HN4      -0.616800
     24 C7           1.4050     2.6070    -2.6480 c3         1 HN4      -0.113400
     25 C6           0.3410     1.5280    -2.4470 c3         1 HN4      -0.071400
     26 H12          0.1700    -0.0010     2.4930 ha         1 HN4       0.141500
     27 H13          1.4130    -0.0020     4.6180 ha         1 HN4       0.138500
     28 H18          2.6890    -1.1800     6.1060 hc         1 HN4       0.038367
     29 H18A         3.8400    -2.1290     5.1540 hc         1 HN4       0.038367
     30 H18B         4.3680    -1.3310     6.6420 hc         1 HN4       0.038367
     31 H19          5.8540    -0.8850     4.1300 hc         1 HN4       0.038367
     32 H19A         5.8530     0.8840     4.1300 hc         1 HN4       0.038367
     33 H19B         6.1340     0.0000     5.6360 hc         1 HN4       0.038367
     34 H20          4.3660     1.3260     6.6450 hc         1 HN4       0.038367
     35 H20A         3.8370     2.1260     5.1590 hc         1 HN4       0.038367
     36 H20B         2.6880     1.1740     6.1080 hc         1 HN4       0.038367
     37 H15          5.1130    -0.0020     2.4800 ha         1 HN4       0.138500
     38 H16          3.8920    -0.0050     0.3420 ha         1 HN4       0.141500
     39 H9           2.5120    -0.9360    -1.4030 hc         1 HN4       0.072700
     40 H9A          2.6620     0.8240    -1.3240 hc         1 HN4       0.072700
     41 H5           0.2040    -0.6240    -2.3840 h1         1 HN4       0.084700
     42 H3           1.5310    -1.9620    -4.5240 h1         1 HN4       0.048700
     43 H3A          2.5890    -1.8070    -3.1010 h1         1 HN4       0.048700
     44 H2           4.3750    -1.4680    -4.5030 h1         1 HN4       0.032700
     45 HO2          3.8330    -2.3810    -6.3570 ho         1 HN4       0.394000
     46 H1           4.5900     0.8000    -5.0390 h1         1 HN4       0.044700
     47 HO1          3.5350     1.1520    -6.8980 ho         1 HN4       0.400000
     48 H8A          3.4430     0.8510    -2.9190 h1         1 HN4       0.047700
     49 H8           1.5710     2.3770    -4.7880 h1         1 HN4       0.072700
     50 HO8          2.9480     4.0540    -4.5010 ho         1 HN4       0.406000
     51 H7           2.0720     2.6130    -1.7940 hc         1 HN4       0.045200
     52 H7A          0.9210     3.5720    -2.7380 hc         1 HN4       0.045200
     53 H6          -0.3900     1.5970    -3.2430 hc         1 HN4       0.062700
     54 H6A         -0.1470     1.6840    -1.4930 hc         1 HN4       0.062700
@<TRIPOS>BOND
     1     1     2 2
     2     2     3 1
     3     2    13 1
     4     3     4 ar
     5     3    12 ar
     6     4     5 ar
     7     5     6 ar
     8     6     7 1
     9     6    11 ar
    10     7     8 1
    11     7     9 1
    12     7    10 1
    13    11    12 ar
    14    13    14 1
    15    14    15 1
    16    14    25 1
    17    15    16 1
    18    15    21 1
    19    16    17 1
    20    17    18 1
    21    17    19 1
    22    19    20 1
    23    19    21 1
    24    21    22 1
    25    22    23 1
    26    22    24 1
    27    24    25 1
    28     4    26 1
    29     5    27 1
    30     8    28 1
    31     8    29 1
    32     8    30 1
    33     9    31 1
    34     9    32 1
    35     9    33 1
    36    10    34 1
    37    10    35 1
    38    10    36 1
    39    11    37 1
    40    12    38 1
    41    13    39 1
    42    13    40 1
    43    14    41 1
    44    16    42 1
    45    16    43 1
    46    17    44 1
    47    18    45 1
    48    19    46 1
    49    20    47 1
    50    21    48 1
    51    22    49 1
    52    23    50 1
    53    24    51 1
    54    24    52 1
    55    25    53 1
    56    25    54 1
@<TRIPOS>SUBSTRUCTURE
     1 HN4         1 TEMP              0 ****  ****    0 ROOT
