@<TRIPOS>MOLECULE
HN5
   55    57     1     0     0
SMALL
bcc


@<TRIPOS>ATOM
      1 O8           0.0000     0.0000     0.0000 oh         1 HN5      -0.593800
      2 C8           1.4290     0.0000     0.0000 c3         1 HN5       0.201100
      3 C8A          1.9460     0.0000     1.4330 c3         1 HN5       0.089500
      4 N4           3.4300     0.0580     1.3680 n3         1 HN5      -0.519600
      5 C3           3.8650     0.4610     2.7050 c3         1 HN5       0.130800
      6 C2           2.7190     1.3290     3.2820 c3         1 HN5       0.156100
      7 O2           3.1660     2.6710     3.4830 oh         1 HN5      -0.556800
      8 C1           1.6030     1.2870     2.2040 c3         1 HN5       0.193100
      9 O1           1.6770     2.4300     1.3490 oh         1 HN5      -0.548800
     10 C7           1.9500    -1.2740    -0.6830 c3         1 HN5      -0.065400
     11 C6           3.4740    -1.3410    -0.6040 c3         1 HN5      -0.019400
     12 C5           3.9490    -1.1990     0.8500 c3         1 HN5       0.138500
     13 C9           3.4140    -2.3630     1.6850 c3         1 HN5      -0.088400
     14 C10          4.0710    -3.6660     1.2250 c3         1 HN5       0.033900
     15 C11          3.6430    -4.7920     2.1300 ca         1 HN5      -0.097300
     16 C16          2.5110    -5.5280     1.8300 ca         1 HN5      -0.095500
     17 C15          2.1180    -6.5610     2.6600 ca         1 HN5      -0.104500
     18 C14          2.8560    -6.8580     3.7900 ca         1 HN5      -0.079300
     19 C17          2.4270    -7.9840     4.6960 c3         1 HN5      -0.013700
     20 C20          2.4130    -9.2950     3.9070 c3         1 HN5       0.005567
     21 C19          3.4080    -8.1020     5.8630 c3         1 HN5       0.005567
     22 C18          1.0240    -7.6980     5.2350 c3         1 HN5       0.005567
     23 C13          3.9880    -6.1240     4.0900 ca         1 HN5      -0.104500
     24 C12          4.3830    -5.0930     3.2580 ca         1 HN5      -0.095500
     25 HO8         -0.3140     0.3880    -0.8000 ho         1 HN5       0.391000
     26 H8           1.8010     0.8730    -0.5230 h1         1 HN5       0.036700
     27 H8A          1.6140    -0.8790     1.9720 h1         1 HN5       0.042700
     28 H3           4.7760     1.0440     2.6400 h1         1 HN5       0.021700
     29 H3A          4.0180    -0.4140     3.3260 h1         1 HN5       0.021700
     30 H2           2.3590     0.9030     4.2100 h1         1 HN5       0.000700
     31 HO2          3.2140     2.8510     4.4080 ho         1 HN5       0.379000
     32 H1           0.6270     1.2070     2.6670 h1         1 HN5       0.008700
     33 HO1          1.0050     3.0460     1.5890 ho         1 HN5       0.384000
     34 H7           1.6480    -1.2690    -1.7230 hc         1 HN5       0.020700
     35 H7A          1.5290    -2.1400    -0.1870 hc         1 HN5       0.020700
     36 H6           3.8090    -2.2940    -0.9950 hc         1 HN5       0.023200
     37 H6A          3.8970    -0.5380    -1.1960 hc         1 HN5       0.023200
     38 H5           5.0320    -1.1860     0.8800 h1         1 HN5       0.036700
     39 H9           3.6430    -2.1930     2.7300 hc         1 HN5       0.034700
     40 H9A          2.3410    -2.4360     1.5580 hc         1 HN5       0.034700
     41 H10          3.7680    -3.8840     0.2090 hc         1 HN5       0.021200
     42 H10A         5.1490    -3.5600     1.2660 hc         1 HN5       0.021200
     43 H16          1.9330    -5.2950     0.9440 ha         1 HN5       0.105000
     44 H15          1.2310    -7.1380     2.4240 ha         1 HN5       0.114500
     45 H20          3.3620    -9.4220     3.4010 hc         1 HN5       0.007144
     46 H20A         1.6150    -9.2670     3.1750 hc         1 HN5       0.007144
     47 H20B         2.2510   -10.1240     4.5860 hc         1 HN5       0.007144
     48 H19          3.4190    -7.1730     6.4210 hc         1 HN5       0.007144
     49 H19A         4.4010    -8.3050     5.4810 hc         1 HN5       0.007144
     50 H19B         3.1000    -8.9110     6.5150 hc         1 HN5       0.007144
     51 H18          0.3070    -7.7610     4.4260 hc         1 HN5       0.007144
     52 H18A         0.9990    -6.7040     5.6650 hc         1 HN5       0.007144
     53 H18B         0.7750    -8.4270     5.9970 hc         1 HN5       0.007144
     54 H13          4.5680    -6.3580     4.9740 ha         1 HN5       0.114500
     55 H12          5.2710    -4.5180     3.4930 ha         1 HN5       0.105000
@<TRIPOS>BOND
     1     1     2 1   
     2     1    25 1   
     3     2     3 1   
     4     2    10 1   
     5     2    26 1   
     6     3     4 1   
     7     3     8 1   
     8     3    27 1   
     9     4     5 1   
    10     4    12 1   
    11     5     6 1   
    12     5    28 1   
    13     5    29 1   
    14     6     7 1   
    15     6     8 1   
    16     6    30 1   
    17     7    31 1   
    18     8     9 1   
    19     8    32 1   
    20     9    33 1   
    21    10    11 1   
    22    10    34 1   
    23    10    35 1   
    24    11    12 1   
    25    11    36 1   
    26    11    37 1   
    27    12    13 1   
    28    12    38 1   
    29    13    14 1   
    30    13    39 1   
    31    13    40 1   
    32    14    15 1   
    33    14    41 1   
    34    14    42 1   
    35    15    16 ar  
    36    15    24 ar  
    37    16    17 ar  
    38    16    43 1   
    39    17    18 ar  
    40    17    44 1   
    41    18    19 1   
    42    18    23 ar  
    43    19    20 1   
    44    19    21 1   
    45    19    22 1   
    46    20    45 1   
    47    20    46 1   
    48    20    47 1   
    49    21    48 1   
    50    21    49 1   
    51    21    50 1   
    52    22    51 1   
    53    22    52 1   
    54    22    53 1   
    55    23    24 ar  
    56    23    54 1   
    57    24    55 1   
@<TRIPOS>SUBSTRUCTURE
     1 HN5         1 TEMP              0 ****  ****    0 ROOT
