@<TRIPOS>MOLECULE
HN6
   55    57     1     0     0
SMALL
bcc


@<TRIPOS>ATOM
      1 O8           0.0000     0.0000     0.0000 oh         1 HN6      -0.593800
      2 C8           1.4300     0.0000     0.0000 c3         1 HN6       0.198100
      3 C8A          1.9470     0.0000     1.4340 c3         1 HN6       0.105500
      4 N4           3.4300     0.0580     1.3690 n3         1 HN6      -0.521600
      5 C3           3.8630     0.4610     2.7070 c3         1 HN6       0.134800
      6 C2           2.7190     1.3290     3.2830 c3         1 HN6       0.155100
      7 O2           3.1650     2.6710     3.4830 oh         1 HN6      -0.556800
      8 C1           1.6010     1.2870     2.2040 c3         1 HN6       0.192100
      9 O1           1.6770     2.4290     1.3480 oh         1 HN6      -0.548800
     10 C7           1.9500    -1.2750    -0.6820 c3         1 HN6      -0.059400
     11 C6           3.4750    -1.3420    -0.6030 c3         1 HN6      -0.023400
     12 C5           3.9490    -1.2000     0.8520 c3         1 HN6       0.134500
     13 C9           5.4780    -1.1870     0.9000 c3         1 HN6      -0.032400
     14 C10          6.0120    -2.5610     0.4850 c3         1 HN6       0.026900
     15 C11          7.5100    -2.5890     0.6530 ca         1 HN6      -0.094300
     16 C16          8.0630    -2.9920     1.8530 ca         1 HN6      -0.095000
     17 C15          9.4360    -3.0190     2.0070 ca         1 HN6      -0.104500
     18 C14         10.2560    -2.6410     0.9610 ca         1 HN6      -0.079300
     19 C17         11.7530    -2.6690     1.1290 c3         1 HN6      -0.012700
     20 C20         12.2030    -4.0940     1.4550 c3         1 HN6       0.005567
     21 C19         12.4210    -2.2080    -0.1690 c3         1 HN6       0.005567
     22 C18         12.1560    -1.7330     2.2700 c3         1 HN6       0.005567
     23 C13          9.7030    -2.2380    -0.2410 ca         1 HN6      -0.104500
     24 C12          8.3290    -2.2160    -0.3950 ca         1 HN6      -0.095000
     25 HO8         -0.3140     0.3680    -0.8090 ho         1 HN6       0.391000
     26 H8           1.8020     0.8720    -0.5230 h1         1 HN6       0.037700
     27 H8A          1.6150    -0.8800     1.9720 h1         1 HN6       0.029700
     28 H3           4.7750     1.0420     2.6440 h1         1 HN6       0.020700
     29 H3A          4.0150    -0.4140     3.3280 h1         1 HN6       0.020700
     30 H2           2.3580     0.9040     4.2120 h1         1 HN6      -0.000300
     31 HO2          3.2130     2.8520     4.4080 ho         1 HN6       0.379000
     32 H1           0.6250     1.2060     2.6660 h1         1 HN6       0.009700
     33 HO1          1.0050     3.0460     1.5870 ho         1 HN6       0.384000
     34 H7           1.6480    -1.2710    -1.7220 hc         1 HN6       0.017700
     35 H7A          1.5300    -2.1410    -0.1850 hc         1 HN6       0.017700
     36 H6           3.8100    -2.2940    -0.9950 hc         1 HN6       0.023700
     37 H6A          3.8970    -0.5380    -1.1940 hc         1 HN6       0.023700
     38 H5           3.5650    -2.0230     1.4430 h1         1 HN6       0.008700
     39 H9           5.8540    -0.4330     0.2200 hc         1 HN6       0.028200
     40 H9A          5.8060    -0.9620     1.9070 hc         1 HN6       0.028200
     41 H10          5.7620    -2.7470    -0.5520 hc         1 HN6       0.019700
     42 H10A         5.5650    -3.3260     1.1080 hc         1 HN6       0.019700
     43 H16          7.4200    -3.2890     2.6730 ha         1 HN6       0.104000
     44 H15          9.8690    -3.3350     2.9480 ha         1 HN6       0.113500
     45 H20         13.2850    -4.1460     1.4290 hc         1 HN6       0.007033
     46 H20A        11.7910    -4.7790     0.7240 hc         1 HN6       0.007033
     47 H20B        11.8520    -4.3660     2.4430 hc         1 HN6       0.007033
     48 H19         12.1360    -2.8710    -0.9770 hc         1 HN6       0.007033
     49 H19A        12.1020    -1.1990    -0.4010 hc         1 HN6       0.007033
     50 H19B        13.4970    -2.2270    -0.0480 hc         1 HN6       0.007033
     51 H18         11.8070    -2.1400     3.2110 hc         1 HN6       0.007033
     52 H18A        11.7110    -0.7580     2.1110 hc         1 HN6       0.007033
     53 H18B        13.2350    -1.6380     2.2960 hc         1 HN6       0.007033
     54 H13         10.3460    -1.9440    -1.0620 ha         1 HN6       0.113500
     55 H12          7.8950    -1.9010    -1.3360 ha         1 HN6       0.104000
@<TRIPOS>BOND
     1     1     2 1   
     2     1    25 1   
     3     2     3 1   
     4     2    10 1   
     5     2    26 1   
     6     3     4 1   
     7     3     8 1   
     8     3    27 1   
     9     4     5 1   
    10     4    12 1   
    11     5     6 1   
    12     5    28 1   
    13     5    29 1   
    14     6     7 1   
    15     6     8 1   
    16     6    30 1   
    17     7    31 1   
    18     8     9 1   
    19     8    32 1   
    20     9    33 1   
    21    10    11 1   
    22    10    34 1   
    23    10    35 1   
    24    11    12 1   
    25    11    36 1   
    26    11    37 1   
    27    12    13 1   
    28    12    38 1   
    29    13    14 1   
    30    13    39 1   
    31    13    40 1   
    32    14    15 1   
    33    14    41 1   
    34    14    42 1   
    35    15    16 ar  
    36    15    24 ar  
    37    16    17 ar  
    38    16    43 1   
    39    17    18 ar  
    40    17    44 1   
    41    18    19 1   
    42    18    23 ar  
    43    19    20 1   
    44    19    21 1   
    45    19    22 1   
    46    20    45 1   
    47    20    46 1   
    48    20    47 1   
    49    21    48 1   
    50    21    49 1   
    51    21    50 1   
    52    22    51 1   
    53    22    52 1   
    54    22    53 1   
    55    23    24 ar  
    56    23    54 1   
    57    24    55 1   
@<TRIPOS>SUBSTRUCTURE
     1 HN6         1 TEMP              0 ****  ****    0 ROOT
