@<TRIPOS>MOLECULE
molecule
   55    57     1     0     0
SMALL
bcc


@<TRIPOS>ATOM
      1 O8           0.0000     0.0000     0.0000 oh         1 HN6      -0.615800
      2 C8           1.4300     0.0000     0.0000 c3         1 HN6       0.161100
      3 C8A          1.9470     0.0000     1.4340 c3         1 HN6       0.160500
      4 N4           3.4300     0.0580     1.3690 n3         1 HN6      -0.708600
      5 C3           3.8630     0.4610     2.7070 c3         1 HN6       0.150800
      6 C2           2.7190     1.3290     3.2830 c3         1 HN6       0.112100
      7 O2           3.1650     2.6710     3.4830 oh         1 HN6      -0.577800
      8 C1           1.6010     1.2870     2.2040 c3         1 HN6       0.155100
      9 O1           1.6770     2.4290     1.3480 oh         1 HN6      -0.566800
     10 C7           1.9500    -1.2750    -0.6820 c3         1 HN6      -0.110400
     11 C6           3.4750    -1.3420    -0.6030 c3         1 HN6      -0.071400
     12 C5           3.9490    -1.2000     0.8520 c3         1 HN6       0.174500
     13 C9           5.4780    -1.1870     0.9000 c3         1 HN6      -0.074400
     14 C10          6.0120    -2.5610     0.4850 c3         1 HN6      -0.037100
     15 C11          7.5100    -2.5890     0.6530 ca         1 HN6      -0.086300
     16 C16          8.0630    -2.9920     1.8530 ca         1 HN6      -0.123500
     17 C15          9.4360    -3.0190     2.0070 ca         1 HN6      -0.124500
     18 C14         10.2560    -2.6410     0.9610 ca         1 HN6      -0.073300
     19 C17         11.7530    -2.6690     1.1290 c3         1 HN6      -0.023700
     20 C20         12.2030    -4.0940     1.4550 c3         1 HN6      -0.080767
     21 C19         12.4210    -2.2080    -0.1690 c3         1 HN6      -0.080767
     22 C18         12.1560    -1.7330     2.2700 c3         1 HN6      -0.080767
     23 C13          9.7030    -2.2380    -0.2410 ca         1 HN6      -0.124500
     24 C12          8.3290    -2.2160    -0.3950 ca         1 HN6      -0.123500
     25 HO8         -0.3140     0.3680    -0.8090 ho         1 HN6       0.405000
     26 H8           1.8020     0.8720    -0.5230 h1         1 HN6       0.071700
     27 H8A          1.6150    -0.8800     1.9720 h1         1 HN6       0.048700
     28 H3           4.7750     1.0420     2.6440 h1         1 HN6       0.047700
     29 H3A          4.0150    -0.4140     3.3280 h1         1 HN6       0.047700
     30 H2           2.3580     0.9040     4.2120 h1         1 HN6       0.033700
     31 HO2          3.2130     2.8520     4.4080 ho         1 HN6       0.394000
     32 H1           0.6250     1.2060     2.6660 h1         1 HN6       0.045700
     33 HO1          1.0050     3.0460     1.5870 ho         1 HN6       0.400000
     34 H7           1.6480    -1.2710    -1.7220 hc         1 HN6       0.045700
     35 H7A          1.5300    -2.1410    -0.1850 hc         1 HN6       0.045700
     36 H6           3.8100    -2.2940    -0.9950 hc         1 HN6       0.051200
     37 H6A          3.8970    -0.5380    -1.1940 hc         1 HN6       0.051200
     38 H5           3.5650    -2.0230     1.4430 h1         1 HN6       0.022700
     39 H9           5.8540    -0.4330     0.2200 hc         1 HN6       0.055200
     40 H9A          5.8060    -0.9620     1.9070 hc         1 HN6       0.055200
     41 H10          5.7620    -2.7470    -0.5520 hc         1 HN6       0.047700
     42 H10A         5.5650    -3.3260     1.1080 hc         1 HN6       0.047700
     43 H16          7.4200    -3.2890     2.6730 ha         1 HN6       0.128500
     44 H15          9.8690    -3.3350     2.9480 ha         1 HN6       0.133000
     45 H20         13.2850    -4.1460     1.4290 hc         1 HN6       0.036700
     46 H20A        11.7910    -4.7790     0.7240 hc         1 HN6       0.036700
     47 H20B        11.8520    -4.3660     2.4430 hc         1 HN6       0.036700
     48 H19         12.1360    -2.8710    -0.9770 hc         1 HN6       0.036700
     49 H19A        12.1020    -1.1990    -0.4010 hc         1 HN6       0.036700
     50 H19B        13.4970    -2.2270    -0.0480 hc         1 HN6       0.036700
     51 H18         11.8070    -2.1400     3.2110 hc         1 HN6       0.036700
     52 H18A        11.7110    -0.7580     2.1110 hc         1 HN6       0.036700
     53 H18B        13.2350    -1.6380     2.2960 hc         1 HN6       0.036700
     54 H13         10.3460    -1.9440    -1.0620 ha         1 HN6       0.133000
     55 H12          7.8950    -1.9010    -1.3360 ha         1 HN6       0.128500
@<TRIPOS>BOND
     1     1     2 1
     2     2     3 1
     3     2    10 1
     4     3     4 1
     5     3     8 1
     6     4     5 1
     7     4    12 1
     8     5     6 1
     9     6     7 1
    10     6     8 1
    11     8     9 1
    12    10    11 1
    13    11    12 1
    14    12    13 1
    15    13    14 1
    16    14    15 1
    17    15    16 ar
    18    15    24 ar
    19    16    17 ar
    20    17    18 ar
    21    18    19 1
    22    18    23 ar
    23    19    20 1
    24    19    21 1
    25    19    22 1
    26    23    24 ar
    27     1    25 1
    28     2    26 1
    29     3    27 1
    30     5    28 1
    31     5    29 1
    32     6    30 1
    33     7    31 1
    34     8    32 1
    35     9    33 1
    36    10    34 1
    37    10    35 1
    38    11    36 1
    39    11    37 1
    40    12    38 1
    41    13    39 1
    42    13    40 1
    43    14    41 1
    44    14    42 1
    45    16    43 1
    46    17    44 1
    47    20    45 1
    48    20    46 1
    49    20    47 1
    50    21    48 1
    51    21    49 1
    52    21    50 1
    53    22    51 1
    54    22    52 1
    55    22    53 1
    56    23    54 1
    57    24    55 1
@<TRIPOS>SUBSTRUCTURE
     1 HN6         1 TEMP              0 ****  ****    0 ROOT
