@<TRIPOS>MOLECULE
molecule
   54    56     1     0     0
SMALL
bcc


@<TRIPOS>ATOM
      1 O10          0.0000     0.0000     0.0000 o          1 HN7      -0.534100
      2 C10          1.2120     0.0000     0.0000 c          1 HN7       0.579700
      3 C11          1.9490     0.0000     1.2750 ca         1 HN7      -0.186600
      4 C12          1.2530    -0.0010     2.4880 ca         1 HN7      -0.077000
      5 C13          1.9500    -0.0010     3.6780 ca         1 HN7      -0.144000
      6 C14          3.3340     0.0000     3.6730 ca         1 HN7      -0.039300
      7 C17          4.0870    -0.0010     4.9780 c3         1 HN7      -0.029700
      8 C18          3.7180    -1.2510     5.7810 c3         1 HN7      -0.081100
      9 C19          5.5910     0.0000     4.6990 c3         1 HN7      -0.081100
     10 C20          3.7170     1.2490     5.7820 c3         1 HN7      -0.081100
     11 C15          4.0290     0.0000     2.4780 ca         1 HN7      -0.144000
     12 C16          3.3470    -0.0060     1.2790 ca         1 HN7      -0.077000
     13 C9           1.9660    -0.0060    -1.3050 c3         1 HN7      -0.176400
     14 C5           0.9780    -0.1550    -2.4630 c3         1 HN7       0.185500
     15 C6           0.3120    -1.5380    -2.4050 c3         1 HN7      -0.073400
     16 C7          -0.6190    -1.7390    -3.6000 c3         1 HN7      -0.107400
     17 C8           0.1290    -1.4850    -4.9180 c3         1 HN7       0.160100
     18 O8          -0.7780    -1.5850    -6.0170 oh         1 HN7      -0.615800
     19 N4           1.6860    -0.0530    -3.7310 n3         1 HN7      -0.713600
     20 C3           2.5010     1.1430    -3.9480 c3         1 HN7       0.147800
     21 C2           2.5290     1.3670    -5.4790 c3         1 HN7       0.112100
     22 O2           3.8580     1.2090    -5.9810 oh         1 HN7      -0.578800
     23 C1           1.5970     0.2690    -6.0630 c3         1 HN7       0.155100
     24 O1           2.3530    -0.8680    -6.4860 oh         1 HN7      -0.566800
     25 C8A          0.7110    -0.0780    -4.8530 c3         1 HN7       0.163500
     26 H12          0.1700    -0.0020     2.4930 ha         1 HN7       0.143500
     27 H13          1.4120    -0.0020     4.6190 ha         1 HN7       0.139000
     28 H18          2.6880    -1.1790     6.1080 hc         1 HN7       0.038256
     29 H18A         4.3670    -1.3300     6.6450 hc         1 HN7       0.038256
     30 H18B         3.8390    -2.1280     5.1570 hc         1 HN7       0.038256
     31 H19          5.8540    -0.8840     4.1310 hc         1 HN7       0.038256
     32 H19A         6.1330     0.0010     5.6370 hc         1 HN7       0.038256
     33 H19B         5.8530     0.8850     4.1310 hc         1 HN7       0.038256
     34 H20          4.3660     1.3270     6.6460 hc         1 HN7       0.038256
     35 H20A         3.8380     2.1270     5.1600 hc         1 HN7       0.038256
     36 H20B         2.6870     1.1760     6.1090 hc         1 HN7       0.038256
     37 H15          5.1130    -0.0010     2.4830 ha         1 HN7       0.139000
     38 H16          3.8930    -0.0060     0.3440 ha         1 HN7       0.143500
     39 H9           2.6620    -0.8360    -1.3160 hc         1 HN7       0.074200
     40 H9A          2.5100     0.9240    -1.4120 hc         1 HN7       0.074200
     41 H5           0.2200     0.6170    -2.4050 h1         1 HN7       0.040700
     42 H6          -0.2610    -1.6180    -1.4900 hc         1 HN7       0.058700
     43 H6A          1.0800    -2.3020    -2.4200 hc         1 HN7       0.058700
     44 H7          -1.4500    -1.0480    -3.5240 hc         1 HN7       0.047700
     45 H7A         -0.9920    -2.7560    -3.5930 hc         1 HN7       0.047700
     46 H8           0.9290    -2.2070    -5.0290 h1         1 HN7       0.069700
     47 HO8         -0.8440    -2.4850    -6.2900 ho         1 HN7       0.405000
     48 H3           3.5060     0.9810    -3.5780 h1         1 HN7       0.045700
     49 H3A          2.0480     1.9960    -3.4560 h1         1 HN7       0.045700
     50 H2           2.1440     2.3500    -5.7200 h1         1 HN7       0.034700
     51 HO2          4.1870     2.0450    -6.2660 ho         1 HN7       0.394000
     52 H1           0.9990     0.6670    -6.8740 h1         1 HN7       0.046700
     53 HO1          2.4310    -0.8610    -7.4260 ho         1 HN7       0.400000
     54 H8A         -0.0660     0.6630    -4.7100 h1         1 HN7       0.051700
@<TRIPOS>BOND
     1     1     2 2
     2     2     3 1
     3     2    13 1
     4     3     4 ar
     5     3    12 ar
     6     4     5 ar
     7     5     6 ar
     8     6     7 1
     9     6    11 ar
    10     7     8 1
    11     7     9 1
    12     7    10 1
    13    11    12 ar
    14    13    14 1
    15    14    15 1
    16    14    19 1
    17    15    16 1
    18    16    17 1
    19    17    18 1
    20    17    25 1
    21    19    20 1
    22    19    25 1
    23    20    21 1
    24    21    22 1
    25    21    23 1
    26    23    24 1
    27    23    25 1
    28     4    26 1
    29     5    27 1
    30     8    28 1
    31     8    29 1
    32     8    30 1
    33     9    31 1
    34     9    32 1
    35     9    33 1
    36    10    34 1
    37    10    35 1
    38    10    36 1
    39    11    37 1
    40    12    38 1
    41    13    39 1
    42    13    40 1
    43    14    41 1
    44    15    42 1
    45    15    43 1
    46    16    44 1
    47    16    45 1
    48    17    46 1
    49    18    47 1
    50    20    48 1
    51    20    49 1
    52    21    50 1
    53    22    51 1
    54    23    52 1
    55    24    53 1
    56    25    54 1
@<TRIPOS>SUBSTRUCTURE
     1 HN7         1 TEMP              0 ****  ****    0 ROOT
