@<TRIPOS>MOLECULE
HN8
   41    45     1     0     0
SMALL
bcc


@<TRIPOS>ATOM
      1 C1           0.0000     0.0000     0.0000 c3         1 HN8      -0.002500
      2 C2           1.5470     0.0000     0.0000 c3         1 HN8       0.145500
      3 O2          -3.0490    -1.4510    -3.6580 os         1 HN8      -0.309900
      4 C10          0.1430    -1.6150     1.8370 c2         1 HN8      -0.159200
      5 C11         -1.6040    -0.8060    -1.7420 ca         1 HN8      -0.080000
      6 C12         -0.0540     0.4580    -3.7470 ca         1 HN8      -0.086000
      7 C13         -1.9830    -0.8580    -3.0750 ca         1 HN8       0.053100
      8 C14         -1.2150    -0.2280    -4.0670 ca         1 HN8       0.057100
      9 C15          2.6330    -3.4430     2.5000 c3         1 HN8       0.249700
     10 C16         -3.1530    -0.8530    -4.9670 c3         1 HN8       0.429200
     11 C17          2.0070     0.0000     1.4610 c3         1 HN8      -0.046400
     12 C3          -0.3390     1.4310     0.4760 c3         1 HN8       0.175100
     13 C4           0.8700     2.2680     0.0070 c3         1 HN8       0.115800
     14 C5          -0.4430    -0.1110    -1.4350 ca         1 HN8      -0.071300
     15 C6           1.6060     1.2240    -2.0630 c3         1 HN8       0.215100
     16 C7          -0.5500    -1.0340     0.9020 c2         1 HN8      -0.101200
     17 C8           0.3280     0.5030    -2.4070 ca         1 HN8      -0.114300
     18 C9           1.5890    -1.3210     2.1070 c3         1 HN8       0.230300
     19 N1           1.8250     1.3250    -0.6150 n3         1 HN8      -0.528600
     20 O1           2.3900    -2.3790     1.5770 os         1 HN8      -0.407600
     21 O3          -1.8080    -0.4260    -5.2660 os         1 HN8      -0.309900
     22 O4          -0.4560     1.4720     1.9000 oh         1 HN8      -0.573800
     23 H1           1.9620    -0.8210    -0.5730 h1         1 HN8       0.066700
     24 H2          -0.3520    -2.3540     2.4560 ha         1 HN8       0.096000
     25 H3          -2.3260    -1.0240    -0.9640 ha         1 HN8       0.127000
     26 H4           0.6620     0.7030    -4.5230 ha         1 HN8       0.122000
     27 H5           3.1180    -3.0500     3.3850 h1         1 HN8      -0.013967
     28 H6           1.6920    -3.9020     2.7780 h1         1 HN8      -0.013967
     29 H7           3.2730    -4.1840     2.0370 h1         1 HN8      -0.013967
     30 H8          -3.8220    -0.0010    -4.9420 h2         1 HN8       0.012200
     31 H9          -3.4870    -1.5850    -5.6920 h2         1 HN8       0.012200
     32 H10          1.5430     0.8250     1.9870 hc         1 HN8       0.045700
     33 H11          3.0860     0.0970     1.5010 hc         1 HN8       0.045700
     34 H12         -1.2500     1.7830     0.0070 h1         1 HN8       0.012700
     35 H13          0.5510     3.0060    -0.7200 h1         1 HN8       0.031700
     36 H14          1.3330     2.7590     0.8540 h1         1 HN8       0.031700
     37 H15          2.4380     0.6900    -2.5060 h1         1 HN8       0.030200
     38 H16          1.5670     2.2220    -2.4820 h1         1 HN8       0.030200
     39 H17         -1.5860    -1.3240     0.7780 ha         1 HN8       0.099000
     40 H18          1.7420    -1.2550     3.1770 h1         1 HN8       0.009700
     41 H20         -1.1150     2.1020     2.1430 ho         1 HN8       0.387000
@<TRIPOS>BOND
     1     1     2 1   
     2     1    12 1   
     3     1    14 1   
     4     1    16 1   
     5     2    11 1   
     6     2    19 1   
     7     2    23 1   
     8     3     7 1   
     9     3    10 1   
    10     4    16 2   
    11     4    18 1   
    12     4    24 1   
    13     5     7 ar  
    14     5    14 ar  
    15     5    25 1   
    16     6     8 ar  
    17     6    17 ar  
    18     6    26 1   
    19     7     8 ar  
    20     8    21 1   
    21     9    20 1   
    22     9    27 1   
    23     9    28 1   
    24     9    29 1   
    25    10    21 1   
    26    10    30 1   
    27    10    31 1   
    28    11    18 1   
    29    11    32 1   
    30    11    33 1   
    31    12    13 1   
    32    12    22 1   
    33    12    34 1   
    34    13    19 1   
    35    13    35 1   
    36    13    36 1   
    37    14    17 ar  
    38    15    17 1   
    39    15    19 1   
    40    15    37 1   
    41    15    38 1   
    42    16    39 1   
    43    18    20 1   
    44    18    40 1   
    45    22    41 1   
@<TRIPOS>SUBSTRUCTURE
     1 HN8         1 TEMP              0 ****  ****    0 ROOT
