@<TRIPOS>MOLECULE
molecule
   28    30     1     0     0
SMALL
bcc


@<TRIPOS>ATOM
      1 C1           0.0000     0.0000     0.0000 ca         1 HNA       0.192100
      2 C2           1.3970     0.0000     0.0000 ca         1 HNA      -0.151600
      3 C3           2.0930     0.0000     1.2250 ca         1 HNA      -0.061600
      4 C4           1.3860     0.0030     2.4210 ca         1 HNA      -0.130200
      5 C5          -0.0010     0.0050     2.4060 ca         1 HNA      -0.047000
      6 C6          -0.6890     0.0030     1.2100 ca         1 HNA      -0.178000
      7 C13          3.5720    -0.0020     1.2240 c          1 HNA       0.573300
      8 C14          4.2930     0.3010    -0.0310 ca         1 HNA      -0.110600
      9 C15          3.5920     0.3070    -1.2520 ca         1 HNA      -0.158600
     10 C16          2.1490    -0.0020    -1.2690 c          1 HNA       0.583300
     11 C22          4.2730     0.5890    -2.4380 ca         1 HNA       0.166100
     12 C23          5.6370     0.8720    -2.3990 ca         1 HNA      -0.175000
     13 C24          6.3150     0.8680    -1.1980 ca         1 HNA      -0.090000
     14 C25          5.6530     0.5840    -0.0140 ca         1 HNA      -0.095000
     15 O16          1.5850    -0.2510    -2.3180 o          1 HNA      -0.459100
     16 O13          4.1870    -0.2490     2.2440 o          1 HNA      -0.468100
     17 O1          -0.6820    -0.0020    -1.1730 oh         1 HNA      -0.475100
     18 O22          3.6090     0.5950    -3.6210 oh         1 HNA      -0.485100
     19 N4           2.1110     0.0040     3.7110 no         1 HNA       0.295200
     20 O4B          1.7860    -0.7700     4.5930 o          1 HNA      -0.182000
     21 O4A          3.0340     0.7800     3.8890 o          1 HNA      -0.182000
     22 HC5         -0.5480     0.0070     3.3410 ha         1 HNA       0.166000
     23 HC6         -1.7730     0.0040     1.2130 ha         1 HNA       0.159000
     24 HC23         6.1670     1.0950    -3.3170 ha         1 HNA       0.145000
     25 HC24         7.3760     1.0890    -1.1800 ha         1 HNA       0.144000
     26 HC25         6.1950     0.5840     0.9240 ha         1 HNA       0.163000
     27 HO1         -1.2640     0.7390    -1.2000 ho         1 HNA       0.433000
     28 HO22         4.0610     0.0430    -4.2370 ho         1 HNA       0.429000
@<TRIPOS>BOND
     1     1     2 ar
     2     1     6 ar
     3     1    17 1
     4     2     3 ar
     5     2    10 1
     6     3     4 ar
     7     3     7 1
     8     4     5 ar
     9     4    19 1
    10     5     6 ar
    11     5    22 1
    12     6    23 1
    13     7     8 1
    14     7    16 2
    15     8     9 ar
    16     8    14 ar
    17     9    10 1
    18     9    11 ar
    19    10    15 2
    20    11    12 ar
    21    11    18 1
    22    12    13 ar
    23    12    24 1
    24    13    14 ar
    25    13    25 1
    26    14    26 1
    27    17    27 1
    28    18    28 1
    29    19    20 1
    30    19    21 1
@<TRIPOS>SUBSTRUCTURE
     1 HNA         1 TEMP              0 ****  ****    0 ROOT
