@<TRIPOS>MOLECULE
molecule
   29    29     1     0     0
SMALL
bcc


@<TRIPOS>ATOM
      1 C1           0.0000     0.0000     0.0000 c3         1 HNB       0.326900
      2 C2           1.5410     0.0000     0.0000 c3         1 HNB      -0.113400
      3 C3           1.9210     0.0000     1.5010 c3         1 HNB      -0.112400
      4 C4           0.6280    -0.5400     2.1630 c3         1 HNB       0.136100
      5 C5           0.5350    -0.0790     3.6190 c3         1 HNB      -0.075400
      6 C6          -0.6820    -0.7270     4.2820 c3         1 HNB      -0.081400
      7 C7          -0.7740    -0.2660     5.7390 c3         1 HNB      -0.082400
      8 C8          -1.9910    -0.9130     6.4020 c3         1 HNB      -0.083400
      9 C9          -2.0840    -0.4530     7.8580 c3         1 HNB      -0.092100
     10 O4          -0.4270     0.0490     1.3720 os         1 HNB      -0.418600
     11 O1          -0.4870    -1.1930    -0.6180 oh         1 HNB      -0.616800
     12 H3           2.1370     1.0050     1.8430 hc         1 HNB       0.055200
     13 H4           0.5920    -1.6210     2.0960 h1         1 HNB       0.058700
     14 H1          -0.3670     0.8710    -0.5290 h2         1 HNB       0.056700
     15 HO1         -1.1890    -0.9770    -1.2080 ho         1 HNB       0.407000
     16 H12          1.9190     0.8920    -0.4850 hc         1 HNB       0.062200
     17 H22          1.9190    -0.8920    -0.4850 hc         1 HNB       0.062200
     18 H15          1.4340    -0.3720     4.1480 hc         1 HNB       0.049700
     19 H25          0.4330     0.9990     3.6500 hc         1 HNB       0.049700
     20 H16         -0.5800    -1.8050     4.2500 hc         1 HNB       0.049200
     21 H26         -1.5810    -0.4340     3.7530 hc         1 HNB       0.049200
     22 H17          0.1240    -0.5590     6.2680 hc         1 HNB       0.039700
     23 H27         -0.8760     0.8120     5.7710 hc         1 HNB       0.039700
     24 H18         -1.8890    -1.9910     6.3700 hc         1 HNB       0.040700
     25 H28         -2.8900    -0.6200     5.8720 hc         1 HNB       0.040700
     26 H19         -2.9460    -0.9110     8.3270 hc         1 HNB       0.032033
     27 H29         -2.1870     0.6250     7.8890 hc         1 HNB       0.032033
     28 H39         -1.1860    -0.7450     8.3870 hc         1 HNB       0.032033
     29 H3A          2.7550    -0.6660     1.6860 hc         1 HNB       0.055200
@<TRIPOS>BOND
     1    10     1 1
     2    14     1 1
     3    11     1 1
     4     1     2 1
     5     3     2 1
     6     2    17 1
     7     2    16 1
     8     4     3 1
     9     3    12 1
    10     3    29 1
    11     5     4 1
    12    10     4 1
    13     4    13 1
    14     6     5 1
    15    19     5 1
    16     5    18 1
    17    21     6 1
    18    20     6 1
    19     6     7 1
    20    23     7 1
    21     7     8 1
    22     7    22 1
    23    24     8 1
    24     8     9 1
    25     8    25 1
    26    28     9 1
    27     9    26 1
    28     9    27 1
    29    15    11 1
@<TRIPOS>SUBSTRUCTURE
     1 HNB         1 TEMP              0 ****  ****    0 ROOT
