@<TRIPOS>MOLECULE
HNB
   29    29     1     0     0
SMALL
bcc


@<TRIPOS>ATOM
      1 C1          0.0410    0.0900    0.0780 c3        1 HNB      0.332900
      2 C2          1.5710    0.1730    0.0990 c3        1 HNB     -0.101400
      3 C3          1.9820   -0.3710    1.4600 c3        1 HNB     -0.105400
      4 C4          0.6860   -0.8100    2.1540 c3        1 HNB      0.144100
      5 C5          0.5390   -0.2220    3.5480 c3        1 HNB     -0.083400
      6 C6         -0.6540   -0.8080    4.2720 c3        1 HNB     -0.078400
      7 C7         -0.8240   -0.1870    5.6420 c3        1 HNB     -0.078400
      8 C8         -2.0100   -0.7810    6.3720 c3        1 HNB     -0.080400
      9 C9         -2.1860   -0.1640    7.7350 c3        1 HNB     -0.092100
     10 O4         -0.4190   -0.3590    1.3460 os        1 HNB     -0.457600
     11 O1         -0.3570   -0.9090   -0.8340 oh        1 HNB     -0.626800
     12 H3          2.6770   -1.2390    1.3530 hc        1 HNB      0.054700
     13 H4          0.6140   -1.9320    2.1930 h1        1 HNB      0.054700
     14 H1         -0.4760    1.0620   -0.1450 h2        1 HNB      0.063700
     15 HO1        -1.2290   -1.2230   -0.5590 ho        1 HNB      0.423000
     16 H12         1.8990    1.2320   -0.0340 hc        1 HNB      0.066700
     17 H22         1.9990   -0.4370   -0.7340 hc        1 HNB      0.066700
     18 H15         0.4240    0.8900    3.4720 hc        1 HNB      0.047700
     19 H25         1.4770   -0.4340    4.1240 hc        1 HNB      0.047700
     20 H16        -1.5770   -0.6360    3.6570 hc        1 HNB      0.047200
     21 H26        -0.5250   -1.9180    4.3750 hc        1 HNB      0.047200
     22 H17         0.1070   -0.3460    6.2470 hc        1 HNB      0.038200
     23 H27        -0.9640    0.9210    5.5380 hc        1 HNB      0.038200
     24 H18        -2.9390   -0.6230    5.7630 hc        1 HNB      0.039700
     25 H28        -1.8680   -1.8890    6.4750 hc        1 HNB      0.039700
     26 H19        -3.0650   -0.6150    8.2550 hc        1 HNB      0.032367
     27 H29        -2.3540    0.9380    7.6510 hc        1 HNB      0.032367
     28 H39        -1.2790   -0.3320    8.3640 hc        1 HNB      0.032367
     29 H3A         2.5060    0.4140    2.0600 hc        1 HNB      0.054700
@<TRIPOS>BOND
     1    1    2 1   
     2    1   10 1   
     3    1   11 1   
     4    1   14 1   
     5    2    3 1   
     6    2   16 1   
     7    2   17 1   
     8    3    4 1   
     9    3   12 1   
    10    3   29 1   
    11    4    5 1   
    12    4   10 1   
    13    4   13 1   
    14    5    6 1   
    15    5   18 1   
    16    5   19 1   
    17    6    7 1   
    18    6   20 1   
    19    6   21 1   
    20    7    8 1   
    21    7   22 1   
    22    7   23 1   
    23    8    9 1   
    24    8   24 1   
    25    8   25 1   
    26    9   26 1   
    27    9   27 1   
    28    9   28 1   
    29   11   15 1   
@<TRIPOS>SUBSTRUCTURE
     1 HNB         1 TEMP              0 ****  ****    0 ROOT
