@<TRIPOS>MOLECULE
molecule
   31    30     1     0     0
SMALL
bcc


@<TRIPOS>ATOM
      1 C1           0.0000     0.0000     0.0000 c3         1 HND       0.141400
      2 C2           1.5310     0.0000     0.0000 c3         1 HND      -0.082400
      3 C3           2.0410     0.0000     1.4420 c3         1 HND      -0.093400
      4 C4           3.5700     0.0010     1.4420 c3         1 HND       0.148100
      5 C5           4.0810    -0.1250     2.8800 c3         1 HND      -0.092400
      6 C6           5.6050    -0.2510     2.8700 c3         1 HND      -0.083400
      7 C7           6.1150    -0.3760     4.3060 c3         1 HND      -0.080400
      8 C8           7.6410    -0.5010     4.2970 c3         1 HND      -0.084400
      9 C9           8.1510    -0.6270     5.7330 c3         1 HND      -0.092100
     10 O10          4.0470     1.2220     0.8730 oh         1 HND      -0.604800
     11 O11         -0.4750    -0.0000    -1.3470 oh         1 HND      -0.612800
     12 H2           1.8920    -0.8840    -0.5110 hc         1 HND       0.055700
     13 H3           1.6790     0.8840     1.9530 hc         1 HND       0.051200
     14 H4           3.9320    -0.8360     0.8560 h1         1 HND       0.031700
     15 H5           3.6490    -1.0060     3.3400 hc         1 HND       0.051200
     16 H5A          3.7940     0.7540     3.4430 hc         1 HND       0.051200
     17 HO10         4.5700     1.0310     0.1120 ho         1 HND       0.401000
     18 H6           5.8920    -1.1300     2.3060 hc         1 HND       0.043200
     19 H6A          6.0370     0.6300     2.4090 hc         1 HND       0.043200
     20 H7           5.6840    -1.2560     4.7670 hc         1 HND       0.041200
     21 H7A          5.8290     0.5040     4.8690 hc         1 HND       0.041200
     22 H8           8.0720     0.3790     3.8360 hc         1 HND       0.040200
     23 H8A          7.9270    -1.3810     3.7340 hc         1 HND       0.040200
     24 H9           7.7190    -1.5070     6.1940 hc         1 HND       0.032700
     25 H9A          7.8640     0.2530     6.2970 hc         1 HND       0.032700
     26 H9B          9.2310    -0.7160     5.7270 hc         1 HND       0.032700
     27 H1          -0.3610     0.8850     0.5100 h1         1 HND       0.019200
     28 HO11        -1.4180    -0.0000    -1.3480 ho         1 HND       0.401000
     29 H2A          1.8920     0.8840    -0.5110 hc         1 HND       0.055700
     30 H1A         -0.3610    -0.8840     0.5110 h1         1 HND       0.019200
     31 H3A          1.6800    -0.8850     1.9520 hc         1 HND       0.051200
@<TRIPOS>BOND
     1    27     1 1
     2     2     1 1
     3     1    11 1
     4     1    30 1
     5    12     2 1
     6    29     2 1
     7     2     3 1
     8     4     3 1
     9     3    13 1
    10     3    31 1
    11    14     4 1
    12     5     4 1
    13     4    10 1
    14    16     5 1
    15     6     5 1
    16     5    15 1
    17     7     6 1
    18    18     6 1
    19     6    19 1
    20    20     7 1
    21    21     7 1
    22     7     8 1
    23     9     8 1
    24     8    22 1
    25     8    23 1
    26    24     9 1
    27    25     9 1
    28     9    26 1
    29    17    10 1
    30    28    11 1
@<TRIPOS>SUBSTRUCTURE
     1 HND         1 TEMP              0 ****  ****    0 ROOT
