@<TRIPOS>MOLECULE
HND
   31    30     1     0     0
SMALL
bcc


@<TRIPOS>ATOM
      1 C1         -0.0190   -0.0670    0.0060 c3        1 HND      0.132400
      2 C2          1.5000   -0.0790    0.0030 c3        1 HND     -0.083400
      3 C3          2.0340    0.0580    1.4110 c3        1 HND     -0.074400
      4 C4          3.5580    0.1480    1.4150 c3        1 HND      0.142100
      5 C5          4.1060    0.0200    2.8330 c3        1 HND     -0.119400
      6 C6          5.6020   -0.2070    2.8440 c3        1 HND     -0.081400
      7 C7          6.1200   -0.3730    4.2560 c3        1 HND     -0.078400
      8 C8          7.6180   -0.5920    4.2710 c3        1 HND     -0.080400
      9 C9          8.1370   -0.7610    5.6760 c3        1 HND     -0.093100
     10 O10         3.8860    1.4120    0.8490 oh        1 HND     -0.600800
     11 O11        -0.4410   -0.3210   -1.3250 oh        1 HND     -0.600800
     12 H2          1.8810    0.7650   -0.6300 hc        1 HND      0.062200
     13 H3          1.6140    0.9800    1.8900 hc        1 HND      0.048700
     14 H4          3.9900   -0.6680    0.7660 h1        1 HND      0.034700
     15 H5          3.8590    0.9520    3.4050 hc        1 HND      0.053700
     16 H5A         3.5980   -0.8380    3.3450 hc        1 HND      0.053700
     17 HO10        4.8480    1.4860    0.8700 ho        1 HND      0.400000
     18 H6          5.8510   -1.1210    2.2430 hc        1 HND      0.038200
     19 H6A         6.1220    0.6610    2.3580 hc        1 HND      0.038200
     20 H7          5.8680    0.5390    4.8590 hc        1 HND      0.041700
     21 H7A         5.6090   -1.2440    4.7440 hc        1 HND      0.041700
     22 H8          7.8690   -1.5020    3.6650 hc        1 HND      0.038700
     23 H8A         8.1280    0.2800    3.7840 hc        1 HND      0.038700
     24 H9          7.9180    0.1460    6.2900 hc        1 HND      0.033367
     25 H9A         7.6590   -1.6420    6.1700 hc        1 HND      0.033367
     26 H9B         9.2430   -0.9210    5.6640 hc        1 HND      0.033367
     27 H1         -0.4210   -0.8640    0.6890 h1        1 HND      0.018700
     28 HO11       -1.4030   -0.2560   -1.3250 ho        1 HND      0.398000
     29 H2A         1.8610   -1.0330   -0.4610 hc        1 HND      0.062200
     30 H1A        -0.4050    0.9300    0.3500 h1        1 HND      0.018700
     31 H3A         1.7230   -0.8260    2.0260 hc        1 HND      0.048700
@<TRIPOS>BOND
     1    1    2 1   
     2    1   11 1   
     3    1   27 1   
     4    1   30 1   
     5    2    3 1   
     6    2   12 1   
     7    2   29 1   
     8    3    4 1   
     9    3   13 1   
    10    3   31 1   
    11    4    5 1   
    12    4   10 1   
    13    4   14 1   
    14    5    6 1   
    15    5   15 1   
    16    5   16 1   
    17    6    7 1   
    18    6   18 1   
    19    6   19 1   
    20    7    8 1   
    21    7   20 1   
    22    7   21 1   
    23    8    9 1   
    24    8   22 1   
    25    8   23 1   
    26    9   24 1   
    27    9   25 1   
    28    9   26 1   
    29   10   17 1   
    30   11   28 1   
@<TRIPOS>SUBSTRUCTURE
     1 HND         1 TEMP              0 ****  ****    0 ROOT
