@<TRIPOS>MOLECULE
HNE
   27    26     1     0     0
SMALL
bcc


@<TRIPOS>ATOM
      1 C1          0.6610   -0.7720    1.2630 c         1 HNE      0.549100
      2 C2          0.9860    0.1260    0.1430 ce        1 HNE     -0.249200
      3 C3          2.1950    0.6310   -0.1140 c2        1 HNE     -0.148200
      4 C4          3.4650    0.3900    0.6390 c3        1 HNE      0.162300
      5 C5          3.6230    1.3730    1.8020 c3        1 HNE     -0.074400
      6 C6          3.9300    2.7670    1.3030 c3        1 HNE     -0.079400
      7 C7          4.0600    3.7390    2.4560 c3        1 HNE     -0.079400
      8 C8          4.3760    5.1350    1.9640 c3        1 HNE     -0.079400
      9 C9          4.5060    6.1070    3.1090 c3        1 HNE     -0.093100
     10 O10         3.5390   -0.9110    1.2140 oh        1 HNE     -0.599800
     11 O11        -0.4220   -1.3590    1.3390 o         1 HNE     -0.526100
     12 H2          0.1280    0.3810   -0.5060 ha        1 HNE      0.145000
     13 H3          2.3200    1.3270   -0.9640 ha        1 HNE      0.130000
     14 H4          4.3330    0.5140   -0.0750 h1        1 HNE      0.043700
     15 H5C1        4.4520    1.0070    2.4630 hc        1 HNE      0.060200
     16 H5C2        2.6830    1.3740    2.4130 hc        1 HNE      0.060200
     17 H10         3.4400   -1.5420    0.4910 ho        1 HNE      0.406000
     18 H6C1        4.8840    2.7560    0.7120 hc        1 HNE      0.041200
     19 H6C2        3.1150    3.1090    0.6120 hc        1 HNE      0.041200
     20 H7C1        3.1050    3.7550    3.0450 hc        1 HNE      0.042700
     21 H7C2        4.8710    3.3920    3.1500 hc        1 HNE      0.042700
     22 H8C1        5.3310    5.1170    1.3750 hc        1 HNE      0.038700
     23 H8C2        3.5650    5.4790    1.2690 hc        1 HNE      0.038700
     24 H9C1        4.7390    7.1290    2.7250 hc        1 HNE      0.033700
     25 H9C2        3.5560    6.1570    3.6940 hc        1 HNE      0.033700
     26 H9C3        5.3260    5.7950    3.8000 hc        1 HNE      0.033700
     27 H1          1.4460   -0.8870    2.0460 h4        1 HNE      0.026200
@<TRIPOS>BOND
     1    1    2 1   
     2    1   11 2   
     3    1   27 1   
     4    2    3 2   
     5    2   12 1   
     6    3    4 1   
     7    3   13 1   
     8    4    5 1   
     9    4   10 1   
    10    4   14 1   
    11    5    6 1   
    12    5   15 1   
    13    5   16 1   
    14    6    7 1   
    15    6   18 1   
    16    6   19 1   
    17    7    8 1   
    18    7   20 1   
    19    7   21 1   
    20    8    9 1   
    21    8   22 1   
    22    8   23 1   
    23    9   24 1   
    24    9   25 1   
    25    9   26 1   
    26   10   17 1   
@<TRIPOS>SUBSTRUCTURE
     1 HNE         1 TEMP              0 ****  ****    0 ROOT
