@<TRIPOS>MOLECULE
molecule
   27    26     1     0     0
SMALL
bcc


@<TRIPOS>ATOM
      1 C1           0.0000     0.0000     0.0000 c          1 HNE       0.562100
      2 C2           1.4750     0.0000     0.0000 ce         1 HNE      -0.264200
      3 C3           2.1270     0.0000     1.1690 c2         1 HNE      -0.110200
      4 C4           3.6260    -0.0000     1.2750 c3         1 HNE       0.178300
      5 C5           4.1630     1.1820     2.0930 c3         1 HNE      -0.086400
      6 C6           3.7480     2.5430     1.5270 c3         1 HNE      -0.079400
      7 C7           4.2550     3.7250     2.3600 c3         1 HNE      -0.077400
      8 C8           3.8270     5.0850     1.8070 c3         1 HNE      -0.080400
      9 C9           4.4130     6.2260     2.6240 c3         1 HNE      -0.089100
     10 O10          4.0320    -1.2000     1.9350 oh         1 HNE      -0.599800
     11 O11         -0.6480     0.0010    -1.0400 o          1 HNE      -0.523100
     12 H2           2.0250    -0.0000    -0.9330 ha         1 HNE       0.147000
     13 H3           1.5510    -0.0000     2.0870 ha         1 HNE       0.134000
     14 H4           4.0560     0.0260     0.2810 h1         1 HNE       0.037700
     15 H5C1         3.7910     1.1000     3.1080 hc         1 HNE       0.054700
     16 H5C2         5.2440     1.1280     2.1140 hc         1 HNE       0.054700
     17 H10          4.5460    -1.7260     1.3440 ho         1 HNE       0.406000
     18 H6C1         4.1400     2.6350     0.5210 hc         1 HNE       0.039700
     19 H6C2         2.6670     2.5870     1.4840 hc         1 HNE       0.039700
     20 H7C1         5.3370     3.6890     2.3920 hc         1 HNE       0.039700
     21 H7C2         3.8740     3.6260     3.3700 hc         1 HNE       0.039700
     22 H8C1         2.7460     5.1520     1.8290 hc         1 HNE       0.039200
     23 H8C2         4.1660     5.1730     0.7810 hc         1 HNE       0.039200
     24 H9C1         5.4940     6.1770     2.5870 hc         1 HNE       0.034367
     25 H9C2         4.0820     6.1410     3.6520 hc         1 HNE       0.034367
     26 H9C3         4.0800     7.1720     2.2140 hc         1 HNE       0.034367
     27 H1          -0.5230    -0.0020     0.9490 h4         1 HNE      -0.002800
@<TRIPOS>BOND
     1     1     2 1
     2     1    11 2
     3     1    27 1
     4     2     3 2
     5     2    12 1
     6     3     4 1
     7     3    13 1
     8     4     5 1
     9     4    10 1
    10     4    14 1
    11     5     6 1
    12     5    15 1
    13     5    16 1
    14     6     7 1
    15     6    18 1
    16     6    19 1
    17     7     8 1
    18     7    20 1
    19     7    21 1
    20     8     9 1
    21     8    22 1
    22     8    23 1
    23     9    24 1
    24     9    25 1
    25     9    26 1
    26    10    17 1
@<TRIPOS>SUBSTRUCTURE
     1 HNE         1 TEMP              0 ****  ****    0 ROOT
