@<TRIPOS>MOLECULE
HNF
   26    28     1     0     0
SMALL
bcc


@<TRIPOS>ATOM
      1 H15'        -0.3140     0.8880    -0.0470 ho         1 HNF       0.407000
      2 O1           0.0000     0.0000     0.0000 oh         1 HNF      -0.498100
      3 C1           1.3580     0.0000     0.0000 ca         1 HNF       0.146100
      4 C2           2.0540     0.0000     1.2020 ca         1 HNF      -0.143000
      5 C3           3.4310     0.0010     1.2060 ca         1 HNF      -0.038000
      6 C4           4.1350     0.0010    -0.0020 cp         1 HNF      -0.085000
      7 C5           3.4300     0.0010    -1.2030 ca         1 HNF      -0.066300
      8 C6           2.0520    -0.0060    -1.2030 ca         1 HNF      -0.124000
      9 C7           5.5910     0.0020    -0.2830 cp         1 HNF       0.033000
     10 C8           5.7980     0.0030    -1.6590 ca         1 HNF      -0.128300
     11 C9           4.4430     0.0020    -2.3230 c3         1 HNF       0.106200
     12 C10          6.6930     0.0040     0.5750 ca         1 HNF      -0.101000
     13 C11          7.9710     0.0050     0.0550 ca         1 HNF      -0.012000
     14 C12          8.1660     0.0050    -1.3150 ca         1 HNF      -0.456200
     15 C13          7.0790     0.0030    -2.1710 ca         1 HNF       0.015000
     16 N1           9.5390     0.0060    -1.8650 no         1 HNF       1.051200
     17 O2          10.4970     0.0070    -1.1130 o          1 HNF      -0.452000
     18 O3           9.7120     0.0070    -3.0710 o          1 HNF      -0.452000
     19 H25'         1.5110    -0.0020     2.1400 ha         1 HNF       0.119000
     20 H4'          3.9700     0.0010     2.1460 ha         1 HNF       0.105000
     21 H1'          1.5110    -0.0390    -2.1400 ha         1 HNF       0.118000
     22 H12'         4.3250     0.8930    -2.9290 hc         1 HNF       0.038700
     23 H22'         4.3260    -0.8870    -2.9300 hc         1 HNF       0.038700
     24 H3'          6.5450     0.0040     1.6480 ha         1 HNF       0.115000
     25 HO3'         8.8250     0.0070     0.7220 ha         1 HNF       0.133000
     26 H3           7.2340     0.0030    -3.2430 ha         1 HNF       0.132000
@<TRIPOS>BOND
     1     1     2 1   
     2     2     3 1   
     3     3     4 ar  
     4     3     8 ar  
     5     4     5 ar  
     6     4    19 1   
     7     5     6 ar  
     8     5    20 1   
     9     6     7 ar  
    10     6     9 1   
    11     7     8 ar  
    12     7    11 1   
    13     8    21 1   
    14     9    10 ar  
    15     9    12 ar  
    16    10    11 1   
    17    10    15 ar  
    18    11    22 1   
    19    11    23 1   
    20    12    13 ar  
    21    12    24 1   
    22    13    14 ar  
    23    13    25 1   
    24    14    15 ar  
    25    14    16 1   
    26    15    26 1   
    27    16    17 1   
    28    16    18 1   
@<TRIPOS>SUBSTRUCTURE
     1 HNF         1 TEMP              0 ****  ****    0 ROOT
