@<TRIPOS>MOLECULE
molecule
   26    28     1     0     0
SMALL
bcc


@<TRIPOS>ATOM
      1 H15'        -0.3140     0.8880    -0.0470 ho         1 HNF       0.424000
      2 O1           0.0000     0.0000     0.0000 oh         1 HNF      -0.518100
      3 C1           1.3580     0.0000     0.0000 ca         1 HNF       0.125100
      4 C2           2.0540     0.0000     1.2020 ca         1 HNF      -0.154000
      5 C3           3.4310     0.0010     1.2060 ca         1 HNF      -0.079000
      6 C4           4.1350     0.0010    -0.0020 cp         1 HNF      -0.073000
      7 C5           3.4300     0.0010    -1.2030 ca         1 HNF      -0.063300
      8 C6           2.0520    -0.0060    -1.2030 ca         1 HNF      -0.142000
      9 C7           5.5910     0.0020    -0.2830 cp         1 HNF       0.008000
     10 C8           5.7980     0.0030    -1.6590 ca         1 HNF      -0.100300
     11 C9           4.4430     0.0020    -2.3230 c3         1 HNF       0.014200
     12 C10          6.6930     0.0040     0.5750 ca         1 HNF      -0.117000
     13 C11          7.9710     0.0050     0.0550 ca         1 HNF      -0.070000
     14 C12          8.1660     0.0050    -1.3150 ca         1 HNF      -0.157200
     15 C13          7.0790     0.0030    -2.1710 ca         1 HNF      -0.052000
     16 N1           9.5390     0.0060    -1.8650 no         1 HNF       0.296200
     17 O2          10.4970     0.0070    -1.1130 o          1 HNF      -0.206000
     18 O3           9.7120     0.0070    -3.0710 o          1 HNF      -0.206000
     19 H25'         1.5110    -0.0020     2.1400 ha         1 HNF       0.148000
     20 H4'          3.9700     0.0010     2.1460 ha         1 HNF       0.137000
     21 H1'          1.5110    -0.0390    -2.1400 ha         1 HNF       0.146000
     22 H12'         4.3250     0.8930    -2.9290 hc         1 HNF       0.078700
     23 H22'         4.3260    -0.8870    -2.9300 hc         1 HNF       0.078700
     24 H3'          6.5450     0.0040     1.6480 ha         1 HNF       0.148000
     25 HO3'         8.8250     0.0070     0.7220 ha         1 HNF       0.167000
     26 H3           7.2340     0.0030    -3.2430 ha         1 HNF       0.166000
@<TRIPOS>BOND
     1     2     1 1
     2     3     4 ar
     3     3     2 1
     4     4    19 1
     5     5     4 ar
     6     5    20 1
     7     6     5 ar
     8     7     6 ar
     9     7     8 ar
    10     8     3 ar
    11     8    21 1
    12     9    12 ar
    13     9     6 1
    14    10    11 1
    15    10     9 ar
    16    11     7 1
    17    11    22 1
    18    11    23 1
    19    12    24 1
    20    13    12 ar
    21    13    25 1
    22    14    13 ar
    23    15    14 ar
    24    15    10 ar
    25    15    26 1
    26    16    17 1
    27    16    14 1
    28    18    16 1
@<TRIPOS>SUBSTRUCTURE
     1 HNF         1 TEMP              0 ****  ****    0 ROOT
