@<TRIPOS>MOLECULE
HNH
   25    26     1     0     0
SMALL
bcc


@<TRIPOS>ATOM
      1 N1           0.0000     0.0000     0.0000 nb         1 HNH      -0.628000
      2 C2           1.3190     0.0000     0.0000 ca         1 HNH       0.445200
      3 C3           2.0280     0.0000     1.1990 ca         1 HNH      -0.179100
      4 C4           1.3200    -0.0010     2.4080 ca         1 HNH      -0.048000
      5 C5          -0.0590    -0.0010     2.3600 ca         1 HNH      -0.240300
      6 C6          -0.6970    -0.0010     1.1240 ca         1 HNH       0.605600
      7 O6          -2.0520    -0.0030     1.0700 oh         1 HNH      -0.612300
      8 C7           3.5080    -0.0010     1.1950 ce         1 HNH       0.066800
      9 C8           4.2340    -0.8090     0.4350 c2         1 HNH      -0.289200
     10 C9           5.6990    -0.5370     0.6870 c3         1 HNH       0.037800
     11 C10          5.6970     0.5870     1.7400 c3         1 HNH       0.184800
     12 N11          4.2720     0.8500     1.9820 nh         1 HNH      -0.409400
     13 C12          3.7390     1.8490     2.9120 c3         1 HNH       0.235100
     14 H2           1.8550     0.0010    -0.9410 h4         1 HNH      -0.010900
     15 H4           1.8430    -0.0020     3.3570 ha         1 HNH       0.118000
     16 H5          -0.6390    -0.0020     3.2750 ha         1 HNH       0.124000
     17 H8           3.8400    -1.5460    -0.2550 ha         1 HNH       0.136000
     18 H12          2.9160     2.3750     2.4450 h1         1 HNH       0.001367
     19 H12A         3.3890     1.3560     3.8110 h1         1 HNH       0.001367
     20 H12B         4.5200     2.5550     3.1690 h1         1 HNH       0.001367
     21 H81         -2.3510     0.7840     0.6440 ho         1 HNH       0.412000
     22 H9           6.1860    -1.4220     1.0790 hc         1 HNH       0.017700
     23 H101         6.1830    -0.2020    -0.2230 hc         1 HNH       0.017700
     24 H10          6.1800     0.2520     2.6500 h1         1 HNH       0.007200
     25 H121         6.1840     1.4720     1.3480 h1         1 HNH       0.007200
@<TRIPOS>BOND
     1     1     2 ar  
     2     1     6 ar  
     3     2     3 ar  
     4     2    14 1   
     5     3     4 ar  
     6     3     8 1   
     7     4     5 ar  
     8     4    15 1   
     9     5     6 ar  
    10     5    16 1   
    11     6     7 1   
    12     7    21 1   
    13     8     9 2   
    14     8    12 1   
    15     9    10 1   
    16     9    17 1   
    17    10    11 1   
    18    10    22 1   
    19    10    23 1   
    20    11    12 1   
    21    11    24 1   
    22    11    25 1   
    23    12    13 1   
    24    13    18 1   
    25    13    19 1   
    26    13    20 1   
@<TRIPOS>SUBSTRUCTURE
     1 HNH         1 TEMP              0 ****  ****    0 ROOT
