@<TRIPOS>MOLECULE
molecule
   27    28     1     0     0
SMALL
bcc


@<TRIPOS>ATOM
      1 N1           0.0000     0.0000     0.0000 nb         1 HNK      -0.741000
      2 C2           1.3190     0.0000     0.0000 ca         1 HNK       0.473200
      3 C3           2.0270     0.0000     1.1860 ca         1 HNK      -0.213600
      4 C4           1.3360     0.0000     2.3890 ca         1 HNK      -0.080000
      5 C5          -0.0480     0.0010     2.3560 ca         1 HNK      -0.262300
      6 C6          -0.6940     0.0000     1.1260 ca         1 HNK       0.631600
      7 O6          -2.0510     0.0010     1.0790 oh         1 HNK      -0.624300
      8 C7           3.5340    -0.0010     1.1730 c3         1 HNK       0.210800
      9 C8           4.0560    -1.4310     0.9180 c3         1 HNK      -0.093400
     10 C9           5.2830    -1.1940    -0.0030 c3         1 HNK      -0.117400
     11 C10          4.8060     0.0050    -0.8590 c3         1 HNK       0.151800
     12 N11          4.0270     0.8480     0.0730 n3         1 HNK      -0.717600
     13 C12          4.8420     1.9560     0.5880 c3         1 HNK       0.150100
     14 H2           1.8540    -0.0000    -0.9420 h4         1 HNK       0.038100
     15 H4           1.8670     0.0000     3.3330 ha         1 HNK       0.137000
     16 H5          -0.6200     0.0010     3.2760 ha         1 HNK       0.148000
     17 H7           3.9150     0.3660     2.1180 h1         1 HNK       0.051700
     18 H8           4.3600    -1.8970     1.8470 hc         1 HNK       0.054700
     19 H8A          3.3070    -2.0250     0.4090 hc         1 HNK       0.054700
     20 H9           6.1560    -0.9290     0.5800 hc         1 HNK       0.051700
     21 H9A          5.4710    -2.0610    -0.6240 hc         1 HNK       0.051700
     22 H10          4.1760    -0.3390    -1.6700 h1         1 HNK       0.054700
     23 H10A         5.6570     0.5560    -1.2410 h1         1 HNK       0.054700
     24 H12          5.1600     2.5830    -0.2350 h1         1 HNK       0.034033
     25 H12A         5.7120     1.5580     1.0970 h1         1 HNK       0.034033
     26 H12B         4.2540     2.5430     1.2830 h1         1 HNK       0.034033
     27 HO6         -2.3510    -0.7840     0.6530 ho         1 HNK       0.431000
@<TRIPOS>BOND
     1     1     2 ar
     2     1     6 ar
     3     2     3 ar
     4     3     4 ar
     5     3     8 1
     6     4     5 ar
     7     5     6 ar
     8     6     7 1
     9     8     9 1
    10     8    12 1
    11     9    10 1
    12    10    11 1
    13    11    12 1
    14    12    13 1
    15     2    14 1
    16     4    15 1
    17     5    16 1
    18     8    17 1
    19     9    18 1
    20     9    19 1
    21    10    20 1
    22    10    21 1
    23    11    22 1
    24    11    23 1
    25    13    24 1
    26    13    25 1
    27    13    26 1
    28     7    27 1
@<TRIPOS>SUBSTRUCTURE
     1 HNK         1 TEMP              0 ****  ****    0 ROOT
