@<TRIPOS>MOLECULE
HNL
   27    28     1     0     0
SMALL
bcc


@<TRIPOS>ATOM
      1 N1           0.0000     0.0000     0.0000 nb         1 HNL      -0.632000
      2 C2           1.3350     0.0000     2.3890 ca         1 HNL      -0.046000
      3 C3           2.0270     0.0000     1.1860 ca         1 HNL      -0.229600
      4 C4           1.3190     0.0000     0.0000 ca         1 HNL       0.453200
      5 C5          -0.0480     0.0010     2.3560 ca         1 HNL      -0.244300
      6 C6          -0.6950     0.0010     1.1260 ca         1 HNL       0.602600
      7 O6          -2.0500     0.0010     1.0790 oh         1 HNL      -0.612300
      8 C7           3.5340     0.0010     1.1730 c3         1 HNL       0.191800
      9 C8           4.0560     1.4300     0.9160 c3         1 HNL      -0.036400
     10 C9           5.2830     1.1930    -0.0030 c3         1 HNL      -0.054400
     11 C10          4.8060    -0.0060    -0.8590 c3         1 HNL       0.150800
     12 N11          4.0260    -0.8480     0.0730 n3         1 HNL      -0.542600
     13 C12          4.8420    -1.9570     0.5890 c3         1 HNL       0.186100
     14 H2           1.8670     0.0010     3.3330 ha         1 HNL       0.108000
     15 H4           1.8530    -0.0010    -0.9420 h4         1 HNL      -0.005900
     16 H5          -0.6190     0.0020     3.2760 ha         1 HNL       0.123000
     17 H7           3.9160    -0.3650     2.1190 h1         1 HNL       0.029700
     18 H8           4.3610     1.8980     1.8450 hc         1 HNL       0.025200
     19 H8A          3.3070     2.0240     0.4070 hc         1 HNL       0.025200
     20 H9           5.4710     2.0600    -0.6260 hc         1 HNL       0.022200
     21 H9A          6.1560     0.9280     0.5800 hc         1 HNL       0.022200
     22 H10          4.1760     0.3380    -1.6700 h1         1 HNL       0.023700
     23 H10A         5.6570    -0.5570    -1.2410 h1         1 HNL       0.023700
     24 H12          5.1590    -2.5850    -0.2350 h1         1 HNL       0.001700
     25 H12A         5.7120    -1.5600     1.0960 h1         1 HNL       0.001700
     26 H12B         4.2550    -2.5440     1.2850 h1         1 HNL       0.001700
     27 H16         -2.3500     0.7860     0.6520 ho         1 HNL       0.411000
@<TRIPOS>BOND
     1     1     4 ar  
     2     1     6 ar  
     3     2     3 ar  
     4     2     5 ar  
     5     2    14 1   
     6     3     4 ar  
     7     3     8 1   
     8     4    15 1   
     9     5     6 ar  
    10     5    16 1   
    11     6     7 1   
    12     7    27 1   
    13     8     9 1   
    14     8    12 1   
    15     8    17 1   
    16     9    10 1   
    17     9    18 1   
    18     9    19 1   
    19    10    11 1   
    20    10    20 1   
    21    10    21 1   
    22    11    12 1   
    23    11    22 1   
    24    11    23 1   
    25    12    13 1   
    26    13    24 1   
    27    13    25 1   
    28    13    26 1   
@<TRIPOS>SUBSTRUCTURE
     1 HNL         1 TEMP              0 ****  ****    0 ROOT
