@<TRIPOS>MOLECULE
HNM
   28    28     1     0     0
SMALL
bcc


@<TRIPOS>ATOM
      1 N1           0.0000     0.0000     0.0000 nb         1 HNM      -0.642000
      2 C2           1.3170     0.0000     0.0000 ca         1 HNM       0.469200
      3 C3           2.0250     0.0000     1.2050 ca         1 HNM      -0.337900
      4 C4           1.3090    -0.0010     2.4150 ca         1 HNM       0.018000
      5 C5          -0.0580    -0.0010     2.3650 ca         1 HNM      -0.257300
      6 C6          -0.6960    -0.0010     1.1270 ca         1 HNM       0.636600
      7 O6          -2.0500    -0.0020     1.0740 oh         1 HNM      -0.610300
      8 C7           3.4940    -0.0000     1.2070 c          1 HNM       0.634700
      9 O7           4.0990     0.0000     2.2580 o          1 HNM      -0.556100
     10 C8           4.2480     0.0000    -0.0970 c3         1 HNM      -0.120400
     11 C9           5.7530     0.0000     0.1840 c3         1 HNM      -0.021400
     12 C10          6.5190     0.0000    -1.1400 c3         1 HNM       0.139800
     13 N11          7.9630    -0.0000    -0.8690 n7         1 HNM      -0.583200
     14 C12          8.7330     0.0010    -2.1210 c3         1 HNM       0.179100
     15 H2           1.8540     0.0010    -0.9400 h4         1 HNM      -0.014900
     16 H4           1.8280    -0.0010     3.3660 ha         1 HNM       0.129000
     17 H5          -0.6390    -0.0020     3.2790 ha         1 HNM       0.129000
     18 H8           3.9870     0.8850    -0.6650 hc         1 HNM       0.035700
     19 H8A          3.9870    -0.8840    -0.6660 hc         1 HNM       0.035700
     20 H9           6.0140    -0.8840     0.7520 hc         1 HNM       0.032700
     21 H9A          6.0140     0.8850     0.7530 hc         1 HNM       0.032700
     22 H10          6.2590     0.8850    -1.7080 h1         1 HNM       0.003700
     23 H10A         6.2580    -0.8840    -1.7090 h1         1 HNM       0.003700
     24 HN11         8.2020    -0.8100    -0.3320 hn         1 HNM       0.251800
     25 H12          8.4850     0.8840    -2.6970 h1         1 HNM      -0.002633
     26 H12A         8.4880    -0.8850    -2.6960 h1         1 HNM      -0.002633
     27 H12B         9.7920     0.0030    -1.8940 h1         1 HNM      -0.002633
     28 H14         -2.3480    -0.7870     0.6450 ho         1 HNM       0.417000
@<TRIPOS>BOND
     1     1     2 ar  
     2     1     6 ar  
     3     2     3 ar  
     4     2    15 1   
     5     3     4 ar  
     6     3     8 1   
     7     4     5 ar  
     8     4    16 1   
     9     5     6 ar  
    10     5    17 1   
    11     6     7 1   
    12     7    28 1   
    13     8     9 2   
    14     8    10 1   
    15    10    11 1   
    16    10    18 1   
    17    10    19 1   
    18    11    12 1   
    19    11    20 1   
    20    11    21 1   
    21    12    13 1   
    22    12    22 1   
    23    12    23 1   
    24    13    14 1   
    25    13    24 1   
    26    14    25 1   
    27    14    26 1   
    28    14    27 1   
@<TRIPOS>SUBSTRUCTURE
     1 HNM         1 TEMP              0 ****  ****    0 ROOT
