@<TRIPOS>MOLECULE
molecule
   28    29     1     0     0
SMALL
bcc


@<TRIPOS>ATOM
      1 C1           0.0000     0.0000     0.0000 c3         1 HNP       0.167400
      2 C2           1.5290     0.0000     0.0000 c3         1 HNP       0.117100
      3 C3           3.3660     1.3640    -0.0850 c3         1 HNP       0.198200
      4 C4           3.3200     0.9150     1.3800 c3         1 HNP       0.095100
      5 C5           2.0740     0.0000     1.4450 c3         1 HNP       0.095100
      6 C6           4.9570     2.6810    -0.9760 c          1 HNP       0.825500
      7 C7           4.3470     0.5440    -0.8790 c          1 HNP       0.715500
      8 N1           3.8490     2.7400    -0.2080 ns         1 HNP      -0.578900
      9 N2           5.2450     1.4310    -1.3590 ns         1 HNP      -0.595500
     10 O1          -2.5450     1.2340    -0.4900 o          1 HNP      -0.907167
     11 O2          -0.4770     0.0670    -1.3440 os         1 HNP      -0.522200
     12 O3          -2.6880     0.1430    -2.7600 o          1 HNP      -0.907167
     13 O4          -2.5910    -1.2870    -0.5570 o          1 HNP      -0.907167
     14 O5           2.0320     1.2230    -0.5890 os         1 HNP      -0.337600
     15 O6           2.4420    -1.3210     1.8430 oh         1 HNP      -0.572800
     16 O7           4.4980     0.1820     1.7210 oh         1 HNP      -0.578800
     17 O8           4.3340    -0.6550    -1.0490 o          1 HNP      -0.540500
     18 O9           5.6190     3.6530    -1.2810 o          1 HNP      -0.692500
     19 P1          -2.0850     0.0640    -1.2690 p5         1 HNP       1.148900
     20 H11         -0.3610     0.8580     0.5550 h1         1 HNP       0.052200
     21 H12         -0.3610    -0.9090     0.4660 h1         1 HNP       0.052200
     22 H2           1.9090    -0.8580    -0.5410 h1         1 HNP       0.090700
     23 H4           3.1940     1.7700     2.0340 h1         1 HNP       0.040700
     24 H5           1.3380     0.4140     2.1240 h1         1 HNP       0.056700
     25 HN1          3.4390     3.5590     0.1950 hn         1 HNP       0.366500
     26 HN2          6.0280     1.1850    -1.9310 hn         1 HNP       0.343500
     27 HO6          2.0250    -1.5310     2.6620 ho         1 HNP       0.389000
     28 HO7          4.8050     0.4570     2.5690 ho         1 HNP       0.388000
@<TRIPOS>BOND
     1     1     2 1
     2     1    11 1
     3     1    20 1
     4     1    21 1
     5     2     5 1
     6     2    14 1
     7     2    22 1
     8     3     4 1
     9     3     7 1
    10     3     8 1
    11     3    14 1
    12     4     5 1
    13     4    16 1
    14     4    23 1
    15     5    15 1
    16     5    24 1
    17     6     8 1
    18     6     9 1
    19     6    18 2
    20     7     9 1
    21     7    17 2
    22     8    25 1
    23     9    26 1
    24    10    19 1
    25    11    19 1
    26    12    19 1
    27    13    19 1
    28    15    27 1
    29    16    28 1
@<TRIPOS>SUBSTRUCTURE
     1 HNP         1 TEMP              0 ****  ****    0 ROOT
