@<TRIPOS>MOLECULE
HNQ
   20    21     1     0     0
SMALL
bcc


@<TRIPOS>ATOM
      1 C1           0.0000     0.0000     0.0000 ca         1 HNQ      -0.449200
      2 N1          -0.7440    -0.0010    -1.2790 no         1 HNQ       1.052200
      3 O1          -0.3280    -0.6460    -2.2250 o          1 HNQ      -0.447500
      4 C2           1.3620     0.0000     0.0000 ca         1 HNQ       0.042000
      5 N2          -0.6310     0.0030     3.6020 nb         1 HNQ      -0.537000
      6 O2          -1.7720     0.6440    -1.3870 o          1 HNQ      -0.447500
      7 C3           2.0780     0.0000     1.1930 ca         1 HNQ      -0.194000
      8 O3           2.1520     0.0020     3.5540 oh         1 HNQ      -0.479100
      9 C4           1.4360     0.0010     2.3990 ca         1 HNQ       0.159800
     10 C5           0.0260     0.0020     2.4390 ca         1 HNQ       0.327600
     11 C6          -1.9410     0.0040     3.6440 ca         1 HNQ       0.404200
     12 C7          -2.7120     0.0040     2.4840 ca         1 HNQ      -0.185300
     13 C8          -2.1030     0.0130     1.2610 ca         1 HNQ      -0.090000
     14 C9          -0.6960     0.0080     1.2200 ca         1 HNQ      -0.074300
     15 H2           1.8960    -0.0010    -0.9430 ha         1 HNQ       0.122000
     16 H3           3.1610    -0.0000     1.1660 ha         1 HNQ       0.127000
     17 HO3          2.5200    -0.8540     3.6960 ho         1 HNQ       0.415000
     18 H6          -2.4380    -0.0030     4.6070 h4         1 HNQ      -0.016900
     19 H7          -3.7940     0.0050     2.5510 ha         1 HNQ       0.118000
     20 H8          -2.6860     0.0130     0.3480 ha         1 HNQ       0.153000
@<TRIPOS>BOND
     1     1     2 1   
     2     1     4 ar  
     3     1    14 ar  
     4     2     3 1   
     5     2     6 1   
     6     4     7 ar  
     7     4    15 1   
     8     5    10 ar  
     9     5    11 ar  
    10     7     9 ar  
    11     7    16 1   
    12     8     9 1   
    13     8    17 1   
    14     9    10 ar  
    15    10    14 ar  
    16    11    12 ar  
    17    11    18 1   
    18    12    13 ar  
    19    12    19 1   
    20    13    14 ar  
    21    13    20 1   
@<TRIPOS>SUBSTRUCTURE
     1 HNQ         1 TEMP              0 ****  ****    0 ROOT
