@<TRIPOS>MOLECULE
HNR
   45    46     1     0     0
SMALL
bcc


@<TRIPOS>ATOM
      1 CAW          0.0000     0.0000     0.0000 c3         1 HNR       0.009900
      2 CAX          1.5310     0.0000     0.0000 c3         1 HNR      -0.020400
      3 CAV          2.0410     0.0000     1.4420 c3         1 HNR      -0.047400
      4 CAU          3.5710     0.0000     1.4420 c3         1 HNR       0.012000
      5 NAQ          4.0600     0.0000     2.8220 n          1 HNR       0.046000
      6 CAR          4.2880    -1.1940     3.4680 cc         1 HNR      -0.381400
      7 NAS          4.0590    -2.3870     2.8220 nz         1 HNR       0.257600
      8 CAP          4.2880     1.1680     3.4510 c          1 HNR       0.590500
      9 OAO          4.0860     2.2140     2.8630 o          1 HNR      -0.632500
     10 NAG          4.7360     1.1980     4.7190 ns         1 HNR      -0.088500
     11 CAH          4.9690     0.0530     5.3910 c          1 HNR       0.598700
     12 OAA          5.3760     0.0880     6.5400 o          1 HNR      -0.587500
     13 CAI          4.7450    -1.1820     4.7570 cd         1 HNR       0.078800
     14 NAJ          4.9880    -2.3950     5.4430 nh         1 HNR      -0.387300
     15 CAB          3.9700    -3.4510     5.4490 c3         1 HNR       0.243100
     16 SAK          6.4210    -2.6240     6.2410 sy         1 HNR       1.044200
     17 OAT          6.8490    -3.9410     5.9280 o          1 HNR      -0.552800
     18 OAC          7.2090    -1.4690     5.9860 o          1 HNR      -0.552800
     19 CAL          6.0660    -2.6120     7.9670 ca         1 HNR      -0.167500
     20 CAM          5.7530    -3.7920     8.6150 ca         1 HNR       0.003500
     21 CAN          5.4740    -3.7830     9.9690 ca         1 HNR      -0.123000
     22 CAF          5.5080    -2.5940    10.6750 ca         1 HNR      -0.021000
     23 CAE          5.8220    -1.4140    10.0260 ca         1 HNR      -0.123000
     24 CAD          6.1040    -1.4240     8.6730 ca         1 HNR       0.003500
     25 HAW1        -0.3610     0.8710     0.5330 hc         1 HNR       0.010700
     26 HAW2        -0.3610     0.0260    -1.0210 hc         1 HNR       0.010700
     27 HAW3        -0.3610    -0.8970     0.4880 hc         1 HNR       0.010700
     28 HAX1         1.8920    -0.8850    -0.5110 hc         1 HNR       0.020200
     29 HAX2         1.8920     0.8840    -0.5110 hc         1 HNR       0.020200
     30 HAV1         1.6800     0.8840     1.9530 hc         1 HNR       0.021700
     31 HAV2         1.6800    -0.8850     1.9530 hc         1 HNR       0.021700
     32 HAU1         3.9320    -0.8840     0.9310 h1         1 HNR       0.050700
     33 HAU2         3.9320     0.8850     0.9310 h1         1 HNR       0.050700
     34 HAS1         4.6510    -3.0950     3.2080 hn         1 HNR       0.225467
     35 HAS2         4.2580    -2.2820     1.8460 hn         1 HNR       0.225467
     36 HAG          4.8990     2.0780     5.1670 hn         1 HNR       0.232500
     37 HAB1         3.8930    -3.8720     6.4440 h1         1 HNR       0.017367
     38 HAB2         4.2520    -4.2280     4.7490 h1         1 HNR       0.017367
     39 HAB3         3.0140    -3.0320     5.1600 h1         1 HNR       0.017367
     40 HAM          5.7270    -4.7230     8.0630 ha         1 HNR       0.134000
     41 HAD          6.3500    -0.4990     8.1640 ha         1 HNR       0.134000
     42 HAN          5.2290    -4.7080    10.4770 ha         1 HNR       0.119000
     43 HAF          5.2880    -2.5880    11.7360 ha         1 HNR       0.113000
     44 HAE          5.8500    -0.4830    10.5790 ha         1 HNR       0.119000
     45 HAS3         3.1000    -2.6510     2.9370 hn         1 HNR       0.225467
@<TRIPOS>BOND
     1     1     2 1   
     2     1    25 1   
     3     1    26 1   
     4     1    27 1   
     5     2     3 1   
     6     2    28 1   
     7     2    29 1   
     8     3     4 1   
     9     3    30 1   
    10     3    31 1   
    11     4     5 1   
    12     4    32 1   
    13     4    33 1   
    14     5     6 1   
    15     5     8 1   
    16     6     7 1   
    17     6    13 2   
    18     7    34 1   
    19     7    35 1   
    20     7    45 1   
    21     8     9 2   
    22     8    10 1   
    23    10    11 1   
    24    10    36 1   
    25    11    12 2   
    26    11    13 1   
    27    13    14 1   
    28    14    15 1   
    29    14    16 1   
    30    15    37 1   
    31    15    38 1   
    32    15    39 1   
    33    16    17 2   
    34    16    18 2   
    35    16    19 1   
    36    19    20 ar  
    37    19    24 ar  
    38    20    21 ar  
    39    20    40 1   
    40    21    22 ar  
    41    21    42 1   
    42    22    23 ar  
    43    22    43 1   
    44    23    24 ar  
    45    23    44 1   
    46    24    41 1   
@<TRIPOS>SUBSTRUCTURE
     1 HNR         1 TEMP              0 ****  ****    0 ROOT
