@<TRIPOS>MOLECULE
HNT
   27    28     1     0     0
SMALL
bcc


@<TRIPOS>ATOM
      1 C1           0.0000     0.0000     0.0000 c3         1 HNT       0.030900
      2 C2           1.5300     0.0000     0.0000 c3         1 HNT       0.098500
      3 O2          -3.1550     4.5970     3.2350 o          1 HNT      -0.452500
      4 C4           1.7820     1.3500     1.9110 c3         1 HNT       0.203100
      5 C5          -0.1540     2.7690     2.5730 ca         1 HNT      -0.006000
      6 C6          -1.4740     3.1590     2.4710 ca         1 HNT      -0.454200
      7 C7          -2.3130     2.5290     1.5710 ca         1 HNT      -0.013000
      8 C8          -1.8270     1.5090     0.7770 ca         1 HNT      -0.123000
      9 C22          2.0430    -1.2510    -0.7180 c3         1 HNT       0.221400
     10 C8A         -0.5020     1.1170     0.8790 ca         1 HNT      -0.010300
     11 N1          -1.9910     4.2520     3.3260 no         1 HNT       1.050200
     12 O3          -1.2510     4.8070     4.1190 o          1 HNT      -0.452500
     13 C4A          0.3360     1.7460     1.7760 ca         1 HNT      -0.102300
     14 N41          2.0050     0.0000     1.3910 n7         1 HNT      -0.572200
     15 H11         -0.3600     0.1480    -1.0110 hc         1 HNT       0.033200
     16 H12         -0.3600    -0.9480     0.3820 hc         1 HNT       0.033200
     17 H2           1.8910     0.8880    -0.5050 h1         1 HNT       0.024700
     18 H41A         2.0450     1.3610     2.9620 h1         1 HNT       0.020700
     19 H42          2.3840     2.0430     1.3360 h1         1 HNT       0.020700
     20 H5           0.5020     3.2640     3.2790 ha         1 HNT       0.134000
     21 H7          -3.3490     2.8330     1.4900 ha         1 HNT       0.132000
     22 H8          -2.4830     1.0150     0.0710 ha         1 HNT       0.116000
     23 H22          3.7710    -1.8740    -1.3910 ho         1 HNT       0.398000
     24 H221         1.7520    -2.1330    -0.1590 h1         1 HNT      -0.004300
     25 H222         1.6160    -1.2970    -1.7130 h1         1 HNT      -0.004300
     26 H41          2.9830    -0.2080     1.4100 hn         1 HNT       0.277800
     27 O22          3.4670    -1.1940    -0.8120 oh         1 HNT      -0.600800
@<TRIPOS>BOND
     1     1     2 1   
     2     1    10 1   
     3     1    15 1   
     4     1    16 1   
     5     2     9 1   
     6     2    14 1   
     7     2    17 1   
     8     3    11 1   
     9     4    13 1   
    10     4    14 1   
    11     4    18 1   
    12     4    19 1   
    13     5     6 ar  
    14     5    13 ar  
    15     5    20 1   
    16     6     7 ar  
    17     6    11 1   
    18     7     8 ar  
    19     7    21 1   
    20     8    10 ar  
    21     8    22 1   
    22     9    24 1   
    23     9    25 1   
    24     9    27 1   
    25    10    13 ar  
    26    11    12 1   
    27    14    26 1   
    28    23    27 1   
@<TRIPOS>SUBSTRUCTURE
     1 HNT         1 TEMP              0 ****  ****    0 ROOT
