@<TRIPOS>MOLECULE
molecule
   43    44     1     0     0
SMALL
bcc


@<TRIPOS>ATOM
      1 O6           0.0000     0.0000     0.0000 oh         1 HNV      -0.602800
      2 C6           1.4290     0.0000     0.0000 c3         1 HNV       0.148400
      3 C5           1.9400     0.0000     1.4420 c3         1 HNV       0.124100
      4 O5           1.5610    -1.2200     2.0830 os         1 HNV      -0.413600
      5 C4           3.4650     0.1240     1.4440 c3         1 HNV       0.108100
      6 O4           3.8450     1.3710     0.8550 oh         1 HNV      -0.605800
      7 C3           3.9740     0.0640     2.8870 c3         1 HNV       0.138100
      8 O3           5.4020     0.1050     2.8930 oh         1 HNV      -0.595800
      9 C2           3.4960    -1.2410     3.5320 c3         1 HNV       0.123100
     10 O2           4.0630    -2.3530     2.8350 oh         1 HNV      -0.580800
     11 C1           1.9690    -1.3120     3.4490 c3         1 HNV       0.329900
     12 O1           1.4010    -0.2290     4.1890 os         1 HNV      -0.436600
     13 C7          -0.0140    -0.3250     4.3680 c3         1 HNV      -0.012500
     14 C8          -0.4910     0.8340     5.1380 c1         1 HNV      -0.009100
     15 C9          -0.8560     1.7700     5.7470 cg         1 HNV      -0.145000
     16 C10         -1.9250     2.5760     6.3690 ca         1 HNV       0.018000
     17 C15         -2.5870     3.9300     5.8610 ca         1 HNV      -0.102500
     18 C14         -3.2080     4.9750     6.6530 ca         1 HNV      -0.128000
     19 C13         -3.1380     4.6150     7.9280 ca         1 HNV       0.110100
     20 O7          -4.0240     5.5590     8.6570 os         1 HNV      -0.429900
     21 C16         -3.1910     6.8840     8.9390 c3         1 HNV       0.112700
     22 C12         -2.7870     3.8020     8.7260 ca         1 HNV      -0.128000
     23 C11         -2.0790     2.6310     7.7100 ca         1 HNV      -0.102500
     24 H6          -0.3140     0.4750    -0.7510 ho         1 HNV       0.402000
     25 H61C         1.7900    -0.8840    -0.5110 h1         1 HNV       0.038700
     26 H62C         1.7900     0.8850    -0.5110 h1         1 HNV       0.038700
     27 H5           1.5120     0.8360     1.9810 h1         1 HNV       0.061700
     28 H4           3.8930    -0.6940     0.8770 h1         1 HNV       0.073700
     29 H1           1.6300    -2.2540     3.8620 h2         1 HNV       0.092700
     30 HA           4.1870     1.2190    -0.0100 ho         1 HNV       0.408000
     31 H3           3.5800     0.9060     3.4430 h1         1 HNV       0.064700
     32 HB           5.6920     0.8850     3.3370 ho         1 HNV       0.408000
     33 H2           3.8020    -1.2640     4.5710 h1         1 HNV       0.058700
     34 HC           4.6200    -2.8390     3.4200 ho         1 HNV       0.411000
     35 H71C        -0.4320    -0.9680     3.6030 h1         1 HNV       0.149700
     36 H72C        -0.4550     0.6610     4.2920 h1         1 HNV       0.149700
     37 H15         -2.6510     4.0500     4.7860 ha         1 HNV       0.114000
     38 H11         -1.6850     1.7800     8.2510 ha         1 HNV       0.114000
     39 H14         -3.6410     5.8900     6.2690 ha         1 HNV       0.186000
     40 H12         -2.7540     3.8380     9.8090 ha         1 HNV       0.186000
     41 H161        -3.5620     7.6850     8.3100 h1         1 HNV       0.040367
     42 H162        -3.2990     7.1630     9.9800 h1         1 HNV       0.040367
     43 H163        -2.1450     6.7070     8.7190 h1         1 HNV       0.040367
@<TRIPOS>BOND
     1     1     2 1
     2     2     3 1
     3     3     4 1
     4     3     5 1
     5     4    11 1
     6     5     6 1
     7     5     7 1
     8     7     8 1
     9     7     9 1
    10     9    10 1
    11     9    11 1
    12    11    12 1
    13    12    13 1
    14    13    14 1
    15    14    15 3
    16    15    16 1
    17    16    17 ar
    18    16    23 ar
    19    17    18 ar
    20    18    19 ar
    21    19    20 1
    22    19    22 ar
    23    20    21 1
    24    22    23 ar
    25     1    24 1
    26     2    25 1
    27     2    26 1
    28     3    27 1
    29     5    28 1
    30    11    29 1
    31     6    30 1
    32     7    31 1
    33     8    32 1
    34     9    33 1
    35    10    34 1
    36    13    35 1
    37    13    36 1
    38    17    37 1
    39    23    38 1
    40    18    39 1
    41    22    40 1
    42    21    41 1
    43    21    42 1
    44    21    43 1
@<TRIPOS>SUBSTRUCTURE
     1 HNV         1 TEMP              0 ****  ****    0 ROOT
