@<TRIPOS>MOLECULE
HNV
   43    44     1     0     0
SMALL
bcc


@<TRIPOS>ATOM
      1 O6          0.2410    0.0770   -0.1150 oh        1 HNV     -0.592800
      2 C6          1.6470    0.0730   -0.0020 c3        1 HNV      0.135400
      3 C5          2.0900    0.1390    1.4630 c3        1 HNV      0.072100
      4 O5          1.5440   -1.0370    2.0700 os        1 HNV     -0.443600
      5 C4          3.6160    0.1350    1.6010 c3        1 HNV      0.080100
      6 O4          4.1980    1.3120    1.0650 oh        1 HNV     -0.601800
      7 C3          3.9810    0.1320    3.0950 c3        1 HNV      0.117100
      8 O3          5.3830    0.0140    3.2700 oh        1 HNV     -0.611800
      9 C2          3.3490   -1.0780    3.7960 c3        1 HNV      0.136100
     10 O2          3.9570   -2.3000    3.4140 oh        1 HNV     -0.598800
     11 C1          1.8570   -1.2190    3.4350 c3        1 HNV      0.333900
     12 O1          1.1720   -0.2020    4.1420 os        1 HNV     -0.442600
     13 C7         -0.2520   -0.4000    4.1670 c3        1 HNV      0.223500
     14 C8         -0.8490    0.7160    4.8450 c1        1 HNV     -0.139100
     15 C9         -1.3650    1.6400    5.4060 cg        1 HNV     -0.077000
     16 C10        -1.9850    2.7180    6.0620 ca        1 HNV     -0.021000
     17 C15        -2.0430    2.7530    7.4680 ca        1 HNV     -0.068500
     18 C14        -2.6520    3.8140    8.1230 ca        1 HNV     -0.186000
     19 C13        -3.2150    4.8610    7.3670 ca        1 HNV      0.137100
     20 O7         -3.7960    5.8660    8.1130 os        1 HNV     -0.324900
     21 C16        -4.3690    6.9430    7.3800 c3        1 HNV      0.112700
     22 C12        -3.1640    4.8390    5.9680 ca        1 HNV     -0.186000
     23 C11        -2.5490    3.7680    5.3230 ca        1 HNV     -0.068500
     24 H6         -0.0880   -0.6660    0.4080 ho        1 HNV      0.415000
     25 H61C        1.9850    0.9980   -0.5420 h1        1 HNV      0.051700
     26 H62C        2.0740   -0.8420   -0.4910 h1        1 HNV      0.051700
     27 H5          1.6550    1.0470    1.9650 h1        1 HNV      0.082700
     28 H4          4.0500   -0.7770    1.1050 h1        1 HNV      0.067700
     29 H1          1.4800   -2.2550    3.6720 h2        1 HNV      0.098700
     30 HA          4.0480    1.2920    0.1120 ho        1 HNV      0.411000
     31 H3          3.6120    1.0810    3.5750 h1        1 HNV      0.076700
     32 HB          5.7860    0.7230    2.7510 ho        1 HNV      0.430000
     33 H2          3.4450   -0.9450    4.9110 h1        1 HNV      0.073700
     34 HC          4.9130   -2.1670    3.4770 ho        1 HNV      0.431000
     35 H71C       -0.4750   -1.3600    4.7120 h1        1 HNV      0.055200
     36 H72C       -0.6300   -0.4700    3.1080 h1        1 HNV      0.055200
     37 H15        -1.5990    1.9320    8.0520 ha        1 HNV      0.142500
     38 H11        -2.5050    3.7470    4.2240 ha        1 HNV      0.142500
     39 H14        -2.7030    3.8530    9.2200 ha        1 HNV      0.146000
     40 H12        -3.5990    5.6530    5.3720 ha        1 HNV      0.146000
     41 H161       -5.1970    6.5780    6.7260 h1        1 HNV      0.046033
     42 H162       -4.7660    7.6190    8.1810 h1        1 HNV      0.046033
     43 H163       -3.5900    7.4660    6.7740 h1        1 HNV      0.046033
@<TRIPOS>BOND
     1    1    2 1   
     2    1   24 1   
     3    2    3 1   
     4    2   25 1   
     5    2   26 1   
     6    3    4 1   
     7    3    5 1   
     8    3   27 1   
     9    4   11 1   
    10    5    6 1   
    11    5    7 1   
    12    5   28 1   
    13    6   30 1   
    14    7    8 1   
    15    7    9 1   
    16    7   31 1   
    17    8   32 1   
    18    9   10 1   
    19    9   11 1   
    20    9   33 1   
    21   10   34 1   
    22   11   12 1   
    23   11   29 1   
    24   12   13 1   
    25   13   14 1   
    26   13   35 1   
    27   13   36 1   
    28   14   15 3   
    29   15   16 1   
    30   16   17 ar  
    31   16   23 ar  
    32   17   18 ar  
    33   17   37 1   
    34   18   19 ar  
    35   18   39 1   
    36   19   20 1   
    37   19   22 ar  
    38   20   21 1   
    39   21   41 1   
    40   21   42 1   
    41   21   43 1   
    42   22   23 ar  
    43   22   40 1   
    44   23   38 1   
@<TRIPOS>SUBSTRUCTURE
     1 HNV         1 TEMP              0 ****  ****    0 ROOT
