@<TRIPOS>MOLECULE
molecule
   40    41     1     0     0
SMALL
bcc


@<TRIPOS>ATOM
      1 O6           0.0000     0.0000     0.0000 oh         1 HNW      -0.598800
      2 C6           1.4290     0.0000     0.0000 c3         1 HNW       0.151400
      3 C5           1.9390     0.0000     1.4420 c3         1 HNW       0.145100
      4 O5           1.5600    -1.2210     2.0810 os         1 HNW      -0.402600
      5 C4           3.4650     0.1240     1.4450 c3         1 HNW       0.115100
      6 O4           3.8430     1.3710     0.8580 oh         1 HNW      -0.604800
      7 C3           3.9720     0.0620     2.8890 c3         1 HNW       0.132100
      8 O3           5.4000     0.1040     2.8960 oh         1 HNW      -0.594800
      9 C2           3.4940    -1.2440     3.5310 c3         1 HNW       0.114100
     10 O2           4.0620    -2.3540     2.8350 oh         1 HNW      -0.573800
     11 O7          -7.2310    -1.6710     4.9160 oh         1 HNW      -0.556800
     12 C7          -6.7710    -0.3980     5.4970 c3         1 HNW       0.202500
     13 C8          -5.2560    -0.4040     5.2150 c1         1 HNW      -0.144100
     14 C10         -2.6830    -0.3270     4.8110 ca         1 HNW      -0.007000
     15 C15         -1.9230     0.7290     5.3160 ca         1 HNW      -0.072500
     16 C14         -0.5610     0.7560     5.1070 ca         1 HNW      -0.178500
     17 C13          0.0550    -0.2640     4.3940 ca         1 HNW       0.143100
     18 O1           1.3980    -0.2330     4.1890 os         1 HNW      -0.359900
     19 C1           1.9670    -1.3150     3.4480 c3         1 HNW       0.316900
     20 C12         -0.6980    -1.3160     3.8890 ca         1 HNW      -0.178500
     21 C11         -2.0600    -1.3540     4.1000 ca         1 HNW      -0.072500
     22 H6          -0.3140     0.1150    -0.8810 ho         1 HNW       0.402000
     23 H61C         1.7910     0.8850    -0.5100 h1         1 HNW       0.035700
     24 H62C         1.7910    -0.8840    -0.5110 h1         1 HNW       0.035700
     25 H5           1.5090     0.8360     1.9820 h1         1 HNW       0.074700
     26 H4           3.8930    -0.6930     0.8780 h1         1 HNW       0.071700
     27 H1           1.6280    -2.2580     3.8600 h2         1 HNW       0.087700
     28 HA           4.5510     1.2310     0.2520 ho         1 HNW       0.413000
     29 H3           3.5770     0.9040     3.4460 h1         1 HNW       0.066700
     30 HB           5.6930     0.7370     3.5300 ho         1 HNW       0.405000
     31 H2           3.7990    -1.2670     4.5700 h1         1 HNW       0.052700
     32 HC           4.3580    -2.9970     3.4580 ho         1 HNW       0.407000
     33 HD          -8.1270    -1.6900     5.2080 ho         1 HNW       0.390000
     34 H71C        -7.1820     0.6010     5.4190 h1         1 HNW       0.053700
     35 H72C        -6.6730    -0.5790     6.5610 h1         1 HNW       0.053700
     36 H11         -2.6470    -2.1750     3.7060 ha         1 HNW       0.141500
     37 H14          0.0300     1.5760     5.4980 ha         1 HNW       0.146500
     38 H12         -0.2130    -2.1120     3.3360 ha         1 HNW       0.146500
     39 H15         -2.4030     1.5250     5.8720 ha         1 HNW       0.141500
     40 C9          -4.0990    -0.3600     5.0270 cg         1 HNW      -0.100000
@<TRIPOS>BOND
     1     1     2 1
     2     2     3 1
     3     3     4 1
     4     3     5 1
     5     4    19 1
     6     5     6 1
     7     5     7 1
     8     7     8 1
     9     7     9 1
    10     9    10 1
    11     9    19 1
    12    11    12 1
    13    12    13 1
    14    13    40 3
    15    40    14 1
    16    14    15 ar
    17    14    21 ar
    18    15    16 ar
    19    16    17 ar
    20    17    18 1
    21    17    20 ar
    22    18    19 1
    23    20    21 ar
    24     1    22 1
    25     2    23 1
    26     2    24 1
    27     3    25 1
    28     5    26 1
    29    19    27 1
    30     6    28 1
    31     7    29 1
    32     8    30 1
    33     9    31 1
    34    10    32 1
    35    11    33 1
    36    12    34 1
    37    12    35 1
    38    15    39 1
    39    21    36 1
    40    16    37 1
    41    20    38 1
@<TRIPOS>SUBSTRUCTURE
     1 HNW         1 TEMP              0 ****  ****    0 ROOT
