@<TRIPOS>MOLECULE
HNW
   40    37     1     0     0
SMALL
bcc


@<TRIPOS>ATOM
      1 O6          0.7420    0.8330    0.1730 oh        1 HNW     -0.345000
      2 C6          0.7960    2.1320    0.7320 c3        1 HNW      0.003000
      3 C5          1.9750    2.3470    1.6250 c2        1 HNW     -0.086000
      4 O5          1.3870   -1.8570    1.4620 oh        1 HNW     -0.301000
      5 C4          2.5420    1.3960    2.3050 c1        1 HNW     -0.253000
      6 O4          3.1220   -0.3870   -0.2860 oh        1 HNW     -0.429000
      7 C3          3.0830    0.4010    2.9620 c2        1 HNW      0.074000
      8 O3          4.0560   -0.4350    2.4480 oh        1 HNW     -0.298000
      9 C2          2.7580   -0.0150    4.3750 c3        1 HNW     -0.012000
     10 O2          2.6810   -1.4320    4.4610 oh        1 HNW     -0.360000
     11 O7         -7.7120    0.8840    5.2960 oh        1 HNW     -0.314000
     12 C7         -6.5620    1.5340    4.7850 c3        1 HNW      0.087000
     13 C8         -5.3390    0.8210    5.0440 c1        1 HNW     -0.169000
     14 C10        -3.1440   -0.4060    5.4770 c1        1 HNW     -0.034000
     15 C15        -2.1100   -0.9840    5.6820 c1        1 HNW     -0.076000
     16 C14        -0.9260   -1.6840    5.9260 c2        1 HNW     -0.060000
     17 C13         0.3200   -1.1960    5.8050 c2        1 HNW     -0.098000
     18 O1          0.5040    0.1600    5.4520 os        1 HNW     -0.040000
     19 C1          1.5080    0.6640    4.8440 c1        1 HNW      0.058000
     20 C12         0.8210   -3.0890    1.6790 c2        1 HNW     -0.006000
     21 C11         1.0900   -3.8750    2.7250 c2        1 HNW     -0.338000
     22 H6          0.6850    0.1970    0.9000 ho        1 HNW      0.222000
     23 H61C        0.1150   -3.3150    0.8630 h4        1 HNW      0.160000
     24 H62C       -0.1490    2.3480    1.3020 h1        1 HNW      0.100500
     25 H5          0.8560    2.8140   -0.1610 h1        1 HNW      0.100500
     26 H4          2.3400    3.3890    1.6810 ha        1 HNW      0.147000
     27 H1          2.0480   -1.6810    2.1540 ho        1 HNW      0.230000
     28 HA          2.7490    0.4790   -0.4840 ho        1 HNW      0.214500
     29 H3          2.3520   -0.9660   -0.2700 ho        1 HNW      0.214500
     30 HB          4.1420   -0.2690    1.4910 ho        1 HNW      0.266000
     31 H2          3.5910    0.3580    5.0500 h1        1 HNW      0.132000
     32 HC          3.5150   -1.7960    4.1310 ho        1 HNW      0.230000
     33 HD         -7.5720    0.7370    6.2390 ho        1 HNW      0.205000
     34 H71C       -6.7510    1.6020    3.6750 h1        1 HNW      0.107500
     35 H72C       -6.4890    2.5740    5.2150 h1        1 HNW      0.107500
     36 H11         0.6090   -4.8500    2.8490 ha        1 HNW      0.127000
     37 H14        -1.0540   -2.7360    6.2500 ha        1 HNW      0.156000
     38 H12         1.2380   -1.7710    5.9940 h4        1 HNW      0.174000
     39 H15         1.7980   -3.5830    3.5130 ha        1 HNW      0.127000
     40 C9         -4.3070    0.2420    5.2470 c1        1 HNW     -0.025000
@<TRIPOS>BOND
     1    1    2 1   
     2    1   22 1   
     3    2    3 1   
     4    2   24 1   
     5    2   25 1   
     6    3    5 1   
     7    3   26 1   
     8    4   20 1   
     9    4   27 1   
    10    5    7 1   
    11    6   28 1   
    12    6   29 1   
    13    7    8 1   
    14    7    9 1   
    15    8   30 1   
    16    9   10 1   
    17    9   19 1   
    18    9   31 1   
    19   10   32 1   
    20   11   12 1   
    21   11   33 1   
    22   12   13 1   
    23   12   34 1   
    24   12   35 1   
    25   13   40 1   
    26   14   15 1   
    27   14   40 1   
    28   15   16 1   
    29   16   17 1   
    30   16   37 1   
    31   17   18 1   
    32   17   38 1   
    33   18   19 1   
    34   20   21 1   
    35   20   23 1   
    36   21   36 1   
    37   21   39 1   
@<TRIPOS>SUBSTRUCTURE
     1 HNW         1 TEMP              0 ****  ****    0 ROOT
