@<TRIPOS>MOLECULE
molecule
   52    51     1     0     0
SMALL
bcc


@<TRIPOS>ATOM
      1 C18          0.0000     0.0000     0.0000 c3         1 HO2      -0.092100
      2 C17          1.5300     0.0000     0.0000 c3         1 HO2      -0.084400
      3 C16          2.0390     0.0000     1.4420 c3         1 HO2      -0.081400
      4 C15          3.5700    -0.0000     1.4420 c3         1 HO2      -0.084400
      5 C14          4.0800     0.0000     2.8850 c3         1 HO2      -0.081400
      6 C13          5.6100     0.0000     2.8840 c3         1 HO2       0.184300
      7 O21          6.0870    -1.2210     2.3150 oh         1 HO2      -0.603800
      8 C12          6.1130     0.1250     4.3000 c2         1 HO2      -0.219200
      9 C11          6.9560    -0.7790     4.7870 ce         1 HO2      -0.104000
     10 C10          7.4470    -0.6580     6.1680 ce         1 HO2      -0.167000
     11 C09          8.2900    -1.5610     6.6560 c2         1 HO2      -0.142200
     12 C08          8.7940    -1.4370     8.0700 c3         1 HO2      -0.054200
     13 C07          8.4990    -2.7310     8.8330 c3         1 HO2      -0.078400
     14 C06          9.0090    -2.6050    10.2690 c3         1 HO2      -0.084400
     15 C05          8.7130    -3.8980    11.0310 c3         1 HO2      -0.081400
     16 C04          9.2240    -3.7720    12.4670 c3         1 HO2      -0.088400
     17 C03          8.9290    -5.0670    13.2290 c3         1 HO2      -0.063400
     18 C02          9.4390    -4.9400    14.6660 c3         1 HO2      -0.182400
     19 C01          9.1490    -6.2140    15.4150 c          1 HO2       0.890600
     20 O20          8.5900    -7.1290    14.8580 o          1 HO2      -0.858300
     21 O19          9.5090    -6.3330    16.7030 o          1 HO2      -0.858300
     22 H18         -0.3610    -0.8840     0.5110 hc         1 HO2       0.031700
     23 H18A        -0.3610     0.8850     0.5110 hc         1 HO2       0.031700
     24 H18B        -0.3610    -0.0000    -1.0210 hc         1 HO2       0.031700
     25 H17          1.8910     0.8850    -0.5110 hc         1 HO2       0.038700
     26 H17A         1.8910    -0.8850    -0.5110 hc         1 HO2       0.038700
     27 H16          1.6780    -0.8850     1.9530 hc         1 HO2       0.042200
     28 H16A         1.6780     0.8850     1.9530 hc         1 HO2       0.042200
     29 H15          3.9310    -0.8850     0.9310 hc         1 HO2       0.042200
     30 H15A         3.9310     0.8840     0.9310 hc         1 HO2       0.042200
     31 H14          3.7190     0.8850     3.3960 hc         1 HO2       0.054700
     32 H14A         3.7200    -0.8840     3.3960 hc         1 HO2       0.054700
     33 H13          5.9710     0.8370     2.2980 h1         1 HO2       0.031700
     34 HO21         6.7470    -1.0300     1.6690 ho         1 HO2       0.398000
     35 H12          5.7870     0.9510     4.9200 ha         1 HO2       0.129000
     36 H11          7.2820    -1.6060     4.1670 ha         1 HO2       0.142000
     37 H10          7.1200     0.1680     6.7880 ha         1 HO2       0.125000
     38 H09          8.6170    -2.3870     6.0360 ha         1 HO2       0.125000
     39 H08          9.8620    -1.2600     8.0590 hc         1 HO2       0.046200
     40 H08A         8.2960    -0.6080     8.5590 hc         1 HO2       0.046200
     41 H07          8.9970    -3.5590     8.3440 hc         1 HO2       0.042700
     42 H07A         7.4300    -2.9080     8.8430 hc         1 HO2       0.042700
     43 H06          8.5110    -1.7760    10.7580 hc         1 HO2       0.036200
     44 H06A        10.0770    -2.4280    10.2590 hc         1 HO2       0.036200
     45 H05          9.2110    -4.7270    10.5420 hc         1 HO2       0.039200
     46 H05A         7.6440    -4.0750    11.0420 hc         1 HO2       0.039200
     47 H04         10.2930    -3.5950    12.4560 hc         1 HO2       0.028700
     48 H04A         8.7260    -2.9440    12.9570 hc         1 HO2       0.028700
     49 H03          9.4280    -5.8950    12.7400 hc         1 HO2       0.045200
     50 H03A         7.8600    -5.2440    13.2390 hc         1 HO2       0.045200
     51 H02         10.5070    -4.7630    14.6560 hc         1 HO2       0.026700
     52 H02A         8.9400    -4.1120    15.1540 hc         1 HO2       0.026700
@<TRIPOS>BOND
     1     2     1 1
     2     1    22 1
     3     1    23 1
     4     1    24 1
     5     2     3 1
     6     2    25 1
     7     2    26 1
     8     4     3 1
     9     3    27 1
    10     3    28 1
    11     4     5 1
    12     4    29 1
    13     4    30 1
    14     6     5 1
    15     5    31 1
    16     5    32 1
    17     8     6 1
    18     6     7 1
    19     6    33 1
    20     7    34 1
    21     9     8 2
    22     8    35 1
    23    10     9 1
    24     9    36 1
    25    11    10 2
    26    10    37 1
    27    12    11 1
    28    11    38 1
    29    13    12 1
    30    12    39 1
    31    12    40 1
    32    14    13 1
    33    13    41 1
    34    13    42 1
    35    15    14 1
    36    14    43 1
    37    14    44 1
    38    16    15 1
    39    15    45 1
    40    15    46 1
    41    17    16 1
    42    16    47 1
    43    16    48 1
    44    18    17 1
    45    17    49 1
    46    17    50 1
    47    19    18 1
    48    18    51 1
    49    18    52 1
    50    20    19 1
    51    19    21 1
@<TRIPOS>SUBSTRUCTURE
     1 HO2         1 TEMP              0 ****  ****    0 ROOT
