@<TRIPOS>MOLECULE
HO2
   52    51     1     0     0
SMALL
bcc


@<TRIPOS>ATOM
      1 C18         1.6350    0.6910   -1.4810 c3        1 HO2     -0.092100
      2 C17         2.7600    0.9920   -0.5250 c3        1 HO2     -0.080400
      3 C16         2.5930    0.2460    0.7820 c3        1 HO2     -0.078400
      4 C15         3.7290    0.5480    1.7350 c3        1 HO2     -0.080400
      5 C14         3.5560   -0.1850    3.0470 c3        1 HO2     -0.106400
      6 C13         4.7590    0.0350    3.9660 c3        1 HO2      0.173300
      7 O21         5.9490   -0.4570    3.3660 oh        1 HO2     -0.596800
      8 C12         4.4980   -0.5540    5.3140 c2        1 HO2     -0.226200
      9 C11         5.4140   -1.2230    6.0270 ce        1 HO2     -0.103000
     10 C10         5.1450   -1.7770    7.3370 ce        1 HO2     -0.175000
     11 C09         6.0260   -2.4740    8.0690 c2        1 HO2     -0.122200
     12 C08         7.4160   -2.7870    7.6610 c3        1 HO2     -0.058200
     13 C07         8.0920   -3.7850    8.5800 c3        1 HO2     -0.078400
     14 C06         8.4690   -3.1790    9.9150 c3        1 HO2     -0.080400
     15 C05         9.0980   -4.2090   10.8290 c3        1 HO2     -0.079400
     16 C04         9.4720   -3.6100   12.1680 c3        1 HO2     -0.078400
     17 C03        10.0730   -4.6500   13.0910 c3        1 HO2     -0.065400
     18 C02        10.4610   -4.0630   14.4250 c3        1 HO2     -0.194400
     19 C01        10.8770   -5.1620   15.4200 c         1 HO2      0.907600
     20 O20        10.1480   -6.1910   15.5220 o         1 HO2     -0.853300
     21 O19        11.9240   -4.9710   16.1030 o         1 HO2     -0.853300
     22 H18         1.7760    1.2500   -2.4370 hc        1 HO2      0.030700
     23 H18A        0.6520    0.9890   -1.0400 hc        1 HO2      0.030700
     24 H18B        1.5960   -0.4010   -1.7140 hc        1 HO2      0.030700
     25 H17         3.7390    0.7080   -0.9940 hc        1 HO2      0.039700
     26 H17A        2.7990    2.0950   -0.3240 hc        1 HO2      0.039700
     27 H16         2.5520   -0.8570    0.5820 hc        1 HO2      0.037700
     28 H16A        1.6170    0.5320    1.2560 hc        1 HO2      0.037700
     29 H15         4.7080    0.2480    1.2730 hc        1 HO2      0.047700
     30 H15A        3.7790    1.6520    1.9260 hc        1 HO2      0.047700
     31 H14         3.4330   -1.2830    2.8560 hc        1 HO2      0.044700
     32 H14A        2.6300    0.1740    3.5660 hc        1 HO2      0.044700
     33 H13         4.9590    1.1420    4.0750 h1        1 HO2      0.079700
     34 HO21        5.8570   -1.4150    3.2930 ho        1 HO2      0.398000
     35 H12         3.4820   -0.3790    5.7010 ha        1 HO2      0.125000
     36 H11         6.4340   -1.3720    5.6270 ha        1 HO2      0.132000
     37 H10         4.1310   -1.5950    7.7360 ha        1 HO2      0.119000
     38 H09         5.7270   -2.8540    9.0620 ha        1 HO2      0.132000
     39 H08         7.4160   -3.1980    6.6150 hc        1 HO2      0.048700
     40 H08A        8.0150   -1.8350    7.6380 hc        1 HO2      0.048700
     41 H07         9.0180   -4.1690    8.0770 hc        1 HO2      0.040700
     42 H07A        7.4150   -4.6640    8.7450 hc        1 HO2      0.040700
     43 H06         7.5560   -2.7490   10.4070 hc        1 HO2      0.035700
     44 H06A        9.1860   -2.3310    9.7550 hc        1 HO2      0.035700
     45 H05        10.0130   -4.6360   10.3410 hc        1 HO2      0.036700
     46 H05A        8.3820   -5.0580   10.9880 hc        1 HO2      0.036700
     47 H04         8.5610   -3.1650   12.6480 hc        1 HO2      0.026700
     48 H04A       10.2040   -2.7740   12.0140 hc        1 HO2      0.026700
     49 H03        10.9760   -5.1040   12.6050 hc        1 HO2      0.043700
     50 H03A        9.3390   -5.4820   13.2650 hc        1 HO2      0.043700
     51 H02         9.5930   -3.5120   14.8680 hc        1 HO2      0.018700
     52 H02A       11.3030   -3.3360   14.3020 hc        1 HO2      0.018700
@<TRIPOS>BOND
     1    1    2 1   
     2    1   22 1   
     3    1   23 1   
     4    1   24 1   
     5    2    3 1   
     6    2   25 1   
     7    2   26 1   
     8    3    4 1   
     9    3   27 1   
    10    3   28 1   
    11    4    5 1   
    12    4   29 1   
    13    4   30 1   
    14    5    6 1   
    15    5   31 1   
    16    5   32 1   
    17    6    7 1   
    18    6    8 1   
    19    6   33 1   
    20    7   34 1   
    21    8    9 2   
    22    8   35 1   
    23    9   10 1   
    24    9   36 1   
    25   10   11 2   
    26   10   37 1   
    27   11   12 1   
    28   11   38 1   
    29   12   13 1   
    30   12   39 1   
    31   12   40 1   
    32   13   14 1   
    33   13   41 1   
    34   13   42 1   
    35   14   15 1   
    36   14   43 1   
    37   14   44 1   
    38   15   16 1   
    39   15   45 1   
    40   15   46 1   
    41   16   17 1   
    42   16   47 1   
    43   16   48 1   
    44   17   18 1   
    45   17   49 1   
    46   17   50 1   
    47   18   19 1   
    48   18   51 1   
    49   18   52 1   
    50   19   20 1   
    51   19   21 1   
@<TRIPOS>SUBSTRUCTURE
     1 HO2         1 TEMP              0 ****  ****    0 ROOT
