@<TRIPOS>MOLECULE
molecule
   35    37     1     0     0
SMALL
bcc


@<TRIPOS>ATOM
      1 C11         -1.5490     0.0190    -2.0950 c1         1 HO4      -0.155500
      2 C10         -0.8570     0.0010    -1.1470 cg         1 HO4      -0.127300
      3 C7           0.0000     0.0000     0.0000 cc         1 HO4      -0.009900
      4 C8           1.3590     0.0000     0.0000 cd         1 HO4      -0.060100
      5 C5          -0.4160     0.0050     1.4100 ca         1 HO4      -0.385400
      6 C6          -1.6460     0.0110     2.0810 ca         1 HO4       0.776200
      7 N6          -2.8370     0.0130     1.3770 nv         1 HO4      -0.992500
      8 N1          -1.6400     0.0130     3.4110 nb         1 HO4      -0.838000
      9 C2          -0.5040     0.0110     4.0850 ca         1 HO4       0.741900
     10 N3           0.6710     0.0060     3.4960 nb         1 HO4      -0.796000
     11 C4           0.7680     0.0020     2.1670 ca         1 HO4       0.526800
     12 N9           1.8170     0.0000     1.2880 na         1 HO4      -0.159100
     13 C1'          3.2310    -0.0010     1.6730 c3         1 HO4       0.248800
     14 O4'          4.0420     0.5420     0.6080 os         1 HO4      -0.397600
     15 C4'          5.3770     0.0530     0.8600 c3         1 HO4       0.134100
     16 C5'          6.2150     0.1090    -0.4180 c3         1 HO4       0.147400
     17 O5'          6.4200     1.4730    -0.7940 oh         1 HO4      -0.593800
     18 C3'          5.1820    -1.4120     1.3110 c3         1 HO4       0.093100
     19 O3'          6.1160    -1.7480     2.3390 oh         1 HO4      -0.569800
     20 C2'          3.7380    -1.4480     1.8590 c3         1 HO4       0.085100
     21 O2'          3.7350    -1.8070     3.2420 oh         1 HO4      -0.559800
     22 H1          -2.3580    -0.4340    -2.6550 ha         1 HO4       0.163500
     23 H2           1.9830     0.0010    -0.8850 h4         1 HO4       0.189000
     24 H3          -2.8330    -0.1240     0.3850 hn         1 HO4       0.446300
     25 H4          -3.7050     0.1200     1.8630 hn         1 HO4       0.446300
     26 H5          -0.5420     0.0130     5.1680 h5         1 HO4       0.060100
     27 H6           3.3790     0.5680     2.5840 h2         1 HO4       0.114700
     28 H7           5.8440     0.6290     1.6500 h1         1 HO4       0.091700
     29 H8           7.1740    -0.3650    -0.2430 h1         1 HO4       0.031200
     30 H9           5.6960    -0.4110    -1.2140 h1         1 HO4       0.031200
     31 H10          7.0880     1.5200    -1.4580 ho         1 HO4       0.405000
     32 H11          5.2820    -2.0830     0.4660 h1         1 HO4       0.045700
     33 H12          6.4980    -2.5900     2.1540 ho         1 HO4       0.403000
     34 H13          3.1330    -2.1360     1.2810 h1         1 HO4       0.055700
     35 H14          3.3720    -2.6710     3.3410 ho         1 HO4       0.407000
@<TRIPOS>BOND
     1     1     2 3
     2    21    20 1
     3     2     3 1
     4    20    18 1
     5    20    13 1
     6     3     4 2
     7     3     5 1
     8     4    12 1
     9    18    19 1
    10    18    15 1
    11     7     6 1
    12     5     6 ar
    13     5    11 ar
    14    12    13 1
    15    12    11 1
    16    13    14 1
    17     6     8 ar
    18    11    10 ar
    19    15    16 1
    20    15    14 1
    21    16    17 1
    22     8     9 ar
    23    10     9 ar
    24     1    22 1
    25     4    23 1
    26     7    24 1
    27     7    25 1
    28     9    26 1
    29    13    27 1
    30    15    28 1
    31    16    29 1
    32    16    30 1
    33    17    31 1
    34    18    32 1
    35    19    33 1
    36    20    34 1
    37    21    35 1
@<TRIPOS>SUBSTRUCTURE
     1 HO4         1 TEMP              0 ****  ****    0 ROOT
