@<TRIPOS>MOLECULE
HO4
   35    37     1     0     0
SMALL
bcc


@<TRIPOS>ATOM
      1 C11         -1.5490     0.0190    -2.0950 c1         1 HO4      -0.132500
      2 C10         -0.8570     0.0010    -1.1470 cg         1 HO4      -0.128300
      3 C7           0.0000     0.0000     0.0000 cc         1 HO4       0.039100
      4 C8           1.3590     0.0000     0.0000 cd         1 HO4      -0.231100
      5 C5          -0.4160     0.0050     1.4100 ca         1 HO4      -0.396400
      6 C6          -1.6460     0.0110     2.0810 ca         1 HO4       0.590200
      7 N6          -2.8370     0.0130     1.3770 nv         1 HO4      -0.504500
      8 N1          -1.6400     0.0130     3.4110 nb         1 HO4      -0.747000
      9 C2          -0.5040     0.0110     4.0850 ca         1 HO4       0.691900
     10 N3           0.6710     0.0060     3.4960 nb         1 HO4      -0.684000
     11 C4           0.7680     0.0020     2.1670 ca         1 HO4       0.313800
     12 N9           1.8170     0.0000     1.2880 na         1 HO4       0.315900
     13 C1'          3.2310    -0.0010     1.6730 c3         1 HO4       0.132800
     14 O4'          4.0420     0.5420     0.6080 os         1 HO4      -0.383600
     15 C4'          5.3770     0.0530     0.8600 c3         1 HO4       0.160100
     16 C5'          6.2150     0.1090    -0.4180 c3         1 HO4       0.224400
     17 O5'          6.4200     1.4730    -0.7940 oh         1 HO4      -0.578800
     18 C3'          5.1820    -1.4120     1.3110 c3         1 HO4       0.133100
     19 O3'          6.1160    -1.7480     2.3390 oh         1 HO4      -0.548800
     20 C2'          3.7380    -1.4480     1.8590 c3         1 HO4       0.121100
     21 O2'          3.7350    -1.8070     3.2420 oh         1 HO4      -0.538800
     22 H1          -2.3580    -0.4340    -2.6550 ha         1 HO4       0.136500
     23 H2           1.9830     0.0010    -0.8850 h4         1 HO4       0.159000
     24 H3          -2.8330    -0.1240     0.3850 hn         1 HO4       0.275800
     25 H4          -3.7050     0.1200     1.8630 hn         1 HO4       0.275800
     26 H5          -0.5420     0.0130     5.1680 h5         1 HO4      -0.005900
     27 H6           3.3790     0.5680     2.5840 h2         1 HO4       0.073700
     28 H7           5.8440     0.6290     1.6500 h1         1 HO4       0.052700
     29 H8           7.1740    -0.3650    -0.2430 h1         1 HO4      -0.007300
     30 H9           5.6960    -0.4110    -1.2140 h1         1 HO4      -0.007300
     31 H10          7.0880     1.5200    -1.4580 ho         1 HO4       0.390000
     32 H11          5.2820    -2.0830     0.4660 h1         1 HO4       0.011700
     33 H12          6.4980    -2.5900     2.1540 ho         1 HO4       0.387000
     34 H13          3.1330    -2.1360     1.2810 h1         1 HO4       0.017700
     35 H14          3.3720    -2.6710     3.3410 ho         1 HO4       0.390000
@<TRIPOS>BOND
     1     1     2 3   
     2     1    22 1   
     3     2     3 1   
     4     3     4 2   
     5     3     5 1   
     6     4    12 1   
     7     4    23 1   
     8     5     6 ar  
     9     5    11 ar  
    10     6     7 1   
    11     6     8 ar  
    12     7    24 1   
    13     7    25 1   
    14     8     9 ar  
    15     9    10 ar  
    16     9    26 1   
    17    10    11 ar  
    18    11    12 1   
    19    12    13 1   
    20    13    14 1   
    21    13    20 1   
    22    13    27 1   
    23    14    15 1   
    24    15    16 1   
    25    15    18 1   
    26    15    28 1   
    27    16    17 1   
    28    16    29 1   
    29    16    30 1   
    30    17    31 1   
    31    18    19 1   
    32    18    20 1   
    33    18    32 1   
    34    19    33 1   
    35    20    21 1   
    36    20    34 1   
    37    21    35 1   
@<TRIPOS>SUBSTRUCTURE
     1 HO4         1 TEMP              0 ****  ****    0 ROOT
