@<TRIPOS>MOLECULE
HOA
    6     5     1     0     0
SMALL
bcc


@<TRIPOS>ATOM
      1 N            0.0000     0.0000     0.0000 nz         1 HOA       0.316900
      2 O            1.4630     0.0000     0.0000 oh         1 HOA      -0.456300
      3 HN1         -0.3340     0.0000     0.9440 hn         1 HOA       0.222467
      4 HN2         -0.3340     0.8170    -0.4720 hn         1 HOA       0.222467
      5 HO           1.7780     0.7700     0.4440 ho         1 HOA       0.472000
      6 HN3         -0.3340    -0.8170    -0.4720 hn         1 HOA       0.222467
@<TRIPOS>BOND
     1     1     2 1   
     2     1     3 1   
     3     1     4 1   
     4     1     6 1   
     5     2     5 1   
@<TRIPOS>SUBSTRUCTURE
     1 HOA         1 TEMP              0 ****  ****    0 ROOT
