@<TRIPOS>MOLECULE
HOC
   26    23     1     0     0
SMALL
bcc


@<TRIPOS>ATOM
      1 C8          0.8270    1.1390   -1.5790 c3        1 HOC     -0.294000
      2 C7          1.9580   -0.0820    1.3570 c1        1 HOC     -0.262000
      3 OH          6.1620    2.3980    3.7810 oh        1 HOC     -0.313000
      4 C1          6.9490    0.2210    3.1220 c2        1 HOC      0.272000
      5 C2          5.8220    1.2150    3.0910 c3        1 HOC     -0.083000
      6 C3          5.5100   -1.4030    2.1370 c3        1 HOC     -0.109000
      7 C4          2.9850   -0.8790    4.9040 c3        1 HOC     -0.054000
      8 C5          2.7780   -0.0940    3.6940 c2        1 HOC     -0.632000
      9 C6          2.2800   -0.6580    2.5180 c2        1 HOC     -0.213000
     10 H81         1.2030    0.7550   -0.5940 hc        1 HOC      0.071000
     11 H82         2.1450   -1.7640    2.5190 ha        1 HOC      0.108000
     12 H83         0.5350    2.2070   -1.4760 hc        1 HOC      0.071000
     13 H71        -0.0570    0.5450   -1.8980 hc        1 HOC      0.071000
     14 H72         1.6260    1.0490   -2.3460 hc        1 HOC      0.071000
     15 HOH         7.0820    2.6060    3.5700 ho        1 HOC      0.198000
     16 H2          3.8700   -0.5020    5.4830 hc        1 HOC      0.000667
     17 H31         5.5790    1.4470    2.0180 h1        1 HOC      0.156500
     18 H32         4.8860    0.8130    3.5990 h1        1 HOC      0.156500
     19 H41         5.3480   -0.8670    1.1710 h1        1 HOC      0.107667
     20 H42         5.5870   -2.5050    1.9700 h1        1 HOC      0.107667
     21 H51         2.1080   -0.8400    5.6090 hc        1 HOC      0.000667
     22 H52         3.1660   -1.9630    4.6760 hc        1 HOC      0.000667
     23 H61         2.8060    0.9940    3.7950 ha        1 HOC      0.088000
     24 H62         4.6820   -1.1590    2.8600 h1        1 HOC      0.107667
     25 O1A         6.7930   -1.0550    2.6660 os        1 HOC     -0.261000
     26 O1B         8.1000    0.4570    3.5150 o         1 HOC     -0.368000
@<TRIPOS>BOND
     1    1   10 1   
     2    1   12 1   
     3    1   13 1   
     4    1   14 1   
     5    2    9 1   
     6    3    5 1   
     7    3   15 1   
     8    4    5 1   
     9    4   25 1   
    10    4   26 1   
    11    5   17 1   
    12    5   18 1   
    13    6   19 1   
    14    6   20 1   
    15    6   24 1   
    16    6   25 1   
    17    7    8 1   
    18    7   16 1   
    19    7   21 1   
    20    7   22 1   
    21    8    9 1   
    22    8   23 1   
    23    9   11 1   
@<TRIPOS>SUBSTRUCTURE
     1 HOC         1 TEMP              0 ****  ****    0 ROOT
