@<TRIPOS>MOLECULE
molecule
   26    25     1     0     0
SMALL
bcc


@<TRIPOS>ATOM
      1 C8           0.0000     0.0000     0.0000 c3         1 HOC      -0.092100
      2 C7           1.5310     0.0000     0.0000 c3         1 HOC      -0.085400
      3 OH           5.7410     1.2210     4.9680 oh         1 HOC      -0.616800
      4 C1           7.6220    -0.1220     4.3300 c          1 HOC       0.870600
      5 C2           6.1200    -0.0000     4.3280 c3         1 HOC       0.039100
      6 C3           5.6100     0.0010     2.8860 c3         1 HOC      -0.057400
      7 C4           4.0800     0.0010     2.8850 c3         1 HOC      -0.086400
      8 C5           3.5700     0.0010     1.4430 c3         1 HOC      -0.082400
      9 C6           2.0400     0.0000     1.4420 c3         1 HOC      -0.082400
     10 H81         -0.3610     0.8850     0.5100 hc         1 HOC       0.026367
     11 H82         -0.3610    -0.8840     0.5110 hc         1 HOC       0.026367
     12 H83         -0.3610    -0.0000    -1.0210 hc         1 HOC       0.026367
     13 H71          1.8920    -0.8850    -0.5110 hc         1 HOC       0.037700
     14 H72          1.8920     0.8850    -0.5110 hc         1 HOC       0.037700
     15 HOH          5.6890     1.0860     5.8990 ho         1 HOC       0.383000
     16 H2           5.6890    -0.8370     4.8640 h1         1 HOC       0.013700
     17 H31          5.9710     0.8870     2.3760 hc         1 HOC       0.055200
     18 H32          5.9710    -0.8820     2.3740 hc         1 HOC       0.055200
     19 H41          3.7180     0.8850     3.3960 hc         1 HOC       0.035200
     20 H42          3.7190    -0.8840     3.3960 hc         1 HOC       0.035200
     21 H51          3.9310     0.8850     0.9320 hc         1 HOC       0.037700
     22 H52          3.9320    -0.8840     0.9320 hc         1 HOC       0.037700
     23 H61          1.6780     0.8840     1.9530 hc         1 HOC       0.036700
     24 H62          1.6790    -0.8850     1.9530 hc         1 HOC       0.036700
     25 O1A          8.2030    -1.2410     3.8700 o          1 HOC      -0.843800
     26 O1B          8.3020     0.7860     4.7460 o          1 HOC      -0.843800
@<TRIPOS>BOND
     1     1     2 1
     2     1    10 1
     3     1    11 1
     4     1    12 1
     5     2     9 1
     6     2    13 1
     7     2    14 1
     8     3     5 1
     9     3    15 1
    10     4     5 1
    11     4    25 1
    12     4    26 1
    13     5     6 1
    14     5    16 1
    15     6     7 1
    16     6    17 1
    17     6    18 1
    18     7     8 1
    19     7    19 1
    20     7    20 1
    21     8     9 1
    22     8    21 1
    23     8    22 1
    24     9    23 1
    25     9    24 1
@<TRIPOS>SUBSTRUCTURE
     1 HOC         1 TEMP              0 ****  ****    0 ROOT
