@<TRIPOS>MOLECULE
molecule
   57    62     1     0     0
SMALL
bcc


@<TRIPOS>ATOM
      1 C1           0.0000     0.0000     0.0000 ca         1 HOE      -0.156500
      2 C2           1.3770     0.0000     0.0000 ca         1 HOE      -0.081500
      3 C3           2.0740     0.0000     1.2100 ca         1 HOE      -0.134900
      4 C4           1.3690     0.0100     2.4160 ca         1 HOE      -0.081500
      5 C5          -0.0080     0.0160     2.4080 ca         1 HOE      -0.156500
      6 C6          -0.6970     0.0090     1.2020 ca         1 HOE       0.130100
      7 C7           3.5510    -0.0040     1.2150 cc         1 HOE       0.500400
      8 C8           5.6560     0.4290     0.6890 ca         1 HOE      -0.109200
      9 C9           6.8810     0.8440     0.1940 ca         1 HOE      -0.063000
     10 C10          8.0550     0.3620     0.7670 ca         1 HOE      -0.129900
     11 C11          7.9960    -0.5310     1.8460 ca         1 HOE      -0.132000
     12 C12          6.7940    -0.9400     2.3410 ca         1 HOE      -0.069000
     13 C13          5.6030    -0.4680     1.7730 ca         1 HOE       0.120400
     14 C14          9.3650     0.7960     0.2410 cc         1 HOE       0.517400
     15 C15         11.4770     1.4550     0.1400 ca         1 HOE      -0.087200
     16 C16         12.7960     1.8490     0.3160 ca         1 HOE      -0.110000
     17 C17         13.5720     2.1580    -0.7890 ca         1 HOE       0.026600
     18 C18         13.0370     2.0640    -2.0730 ca         1 HOE      -0.193000
     19 C19         11.7420     1.6730    -2.2600 ca         1 HOE      -0.039000
     20 C20         10.9400     1.3620    -1.1560 ca         1 HOE       0.107400
     21 C21         14.8620     3.8540     0.0740 c3         1 HOE       0.114300
     22 C22         16.2830     4.4010     0.2200 c3         1 HOE       0.100800
     23 C23         16.8750     3.3330    -1.8440 c3         1 HOE       0.100800
     24 C24         15.4440     2.8040    -1.9580 c3         1 HOE       0.114300
     25 C25         18.2450     5.1010    -0.9730 c3         1 HOE       0.090100
     26 N1           4.3440     0.7070     0.3550 na         1 HOE      -0.252300
     27 N2           4.3010    -0.6910     2.0440 nd         1 HOE      -0.595100
     28 N3          10.4630     1.0930     1.0050 na         1 HOE      -0.255300
     29 N4           9.6530     0.9560    -1.0280 nd         1 HOE      -0.592100
     30 N5          14.9000     2.5600    -0.6170 nh         1 HOE      -0.533000
     31 N6          16.8670     4.6070    -1.1130 nx         1 HOE      -0.657400
     32 O1          -2.0550     0.0140     1.1970 oh         1 HOE      -0.519100
     33 H1          -0.5410    -0.0020    -0.9390 ha         1 HOE       0.150500
     34 H2           1.9190    -0.0080    -0.9380 ha         1 HOE       0.145000
     35 H4           1.9060     0.0130     3.3580 ha         1 HOE       0.145000
     36 H5          -0.5550     0.0230     3.3430 ha         1 HOE       0.150500
     37 H9           6.9250     1.5340    -0.6400 ha         1 HOE       0.147000
     38 H11          8.9130    -0.9020     2.2870 ha         1 HOE       0.133000
     39 H12          6.7590    -1.6300     3.1750 ha         1 HOE       0.153000
     40 H16         13.2140     1.9230     1.3130 ha         1 HOE       0.135000
     41 H18         13.6520     2.3080    -2.9300 ha         1 HOE       0.130000
     42 H19         11.3360     1.6040    -3.2620 ha         1 HOE       0.157000
     43 H212        14.4250     3.7240     1.0560 h1         1 HOE       0.083950
     44 H221        16.2520     5.3460     0.7490 hx         1 HOE       0.109700
     45 H222        16.8870     3.6910     0.7710 hx         1 HOE       0.109700
     46 H231        17.4830     2.6150    -1.3080 hx         1 HOE       0.109700
     47 H232        17.2810     3.4900    -2.8360 hx         1 HOE       0.109700
     48 H241        14.8300     3.5370    -2.4670 h1         1 HOE       0.083950
     49 H242        15.4480     1.8770    -2.5180 h1         1 HOE       0.083950
     50 H251        18.6760     5.2520    -1.9550 hx         1 HOE       0.101033
     51 H252        18.8350     4.3740    -0.4270 hx         1 HOE       0.101033
     52 H253        18.2390     6.0400    -0.4320 hx         1 HOE       0.101033
     53 HN1          4.0360     1.4190    -0.2770 hn         1 HOE       0.311700
     54 HN3         10.4770     1.1870     2.0020 hn         1 HOE       0.313700
     55 HN6         16.3180     5.2760    -1.6160 hn         1 HOE       0.447800
     56 HO1         -2.3720    -0.8740     1.2010 ho         1 HOE       0.428000
     57 H211        14.2670     4.5520    -0.5030 h1         1 HOE       0.083950
@<TRIPOS>BOND
     1     1     2 ar
     2     1     6 ar
     3     1    33 1
     4     2     3 ar
     5     2    34 1
     6     3     4 ar
     7     3     7 1
     8     4     5 ar
     9     4    35 1
    10     5     6 ar
    11     5    36 1
    12     6    32 1
    13     7    26 1
    14     7    27 2
    15     8     9 ar
    16     8    13 ar
    17     8    26 1
    18     9    10 ar
    19     9    37 1
    20    10    11 ar
    21    10    14 1
    22    11    12 ar
    23    11    38 1
    24    12    13 ar
    25    12    39 1
    26    13    27 1
    27    14    28 1
    28    14    29 2
    29    15    16 ar
    30    15    20 ar
    31    15    28 1
    32    16    17 ar
    33    16    40 1
    34    17    18 ar
    35    17    30 1
    36    18    19 ar
    37    18    41 1
    38    19    20 ar
    39    19    42 1
    40    20    29 1
    41    21    22 1
    42    21    30 1
    43    21    57 1
    44    21    43 1
    45    22    31 1
    46    22    44 1
    47    22    45 1
    48    23    24 1
    49    23    31 1
    50    23    46 1
    51    23    47 1
    52    24    30 1
    53    24    48 1
    54    24    49 1
    55    25    31 1
    56    25    50 1
    57    25    51 1
    58    25    52 1
    59    26    53 1
    60    28    54 1
    61    31    55 1
    62    32    56 1
@<TRIPOS>SUBSTRUCTURE
     1 HOE         1 TEMP              0 ****  ****    0 ROOT
