@<TRIPOS>MOLECULE
molecule
    3     2     1     0     0
SMALL
bcc


@<TRIPOS>ATOM
      1 O            0.0000     0.0000     0.0000 oh         1 HOH      -0.802000
      2 H1           0.9430     0.0000     0.0000 ho         1 HOH       0.401000
      3 H2          -0.3140     0.0000     0.8890 ho         1 HOH       0.401000
@<TRIPOS>BOND
     1     1     2 1
     2     1     3 1
@<TRIPOS>SUBSTRUCTURE
     1 HOH         1 TEMP              0 ****  ****    0 ROOT
