@<TRIPOS>MOLECULE
HOM
   28    29     1     0     0
SMALL
bcc


@<TRIPOS>ATOM
      1 CA          0.0170    0.0930   -0.0130 cc        1 HOM     -0.210400
      2 CA2         1.4780    0.1060    0.0060 c         1 HOM      0.724800
      3 CA3         1.4450    0.0530    2.3880 ca        1 HOM      0.191100
      4 CA4         2.2090    0.0320    3.5680 ca        1 HOM     -0.245000
      5 CA5         1.5330   -0.0070    4.7870 ca        1 HOM      0.174100
      6 CA6         0.1210   -0.0240    4.8420 ca        1 HOM     -0.183000
      7 CA7        -0.6040   -0.0020    3.6650 ca        1 HOM     -0.045000
      8 CA8         0.0370    0.0380    2.4110 ca        1 HOM     -0.183800
      9 CA9        -0.6840    0.0620    1.1540 cd        1 HOM      0.056600
     10 CB         -0.6020    0.0940   -1.3650 c3        1 HOM     -0.039200
     11 CB7        -1.1130    1.4790   -1.7430 c3        1 HOM      0.133400
     12 CB8        -2.1650    0.0510    1.2040 c3        1 HOM     -0.078900
     13 OA2         2.2720    0.1320   -0.9350 o         1 HOM     -0.568500
     14 OA3         2.1680    0.0890    1.2190 os        1 HOM     -0.324200
     15 OA4         2.1850   -0.0300    5.9930 oh        1 HOM     -0.488100
     16 OA1        -1.9670    1.3060   -2.8640 oh        1 HOM     -0.603800
     17 HA41        3.3060    0.0440    3.5090 ha        1 HOM      0.163000
     18 HA61       -0.3760   -0.0550    5.8220 ha        1 HOM      0.159000
     19 HA71       -1.7050   -0.0170    3.7100 ha        1 HOM      0.143000
     20 HB1         0.1510   -0.2350   -2.1330 hc        1 HOM      0.076700
     21 HB2        -1.4520   -0.6390   -1.4070 hc        1 HOM      0.076700
     22 HB71       -0.2570    2.1570   -1.9980 h1        1 HOM      0.027700
     23 HB72       -1.7000    1.9320   -0.8980 h1        1 HOM      0.027700
     24 HB81       -2.5220   -0.8830    1.7070 hc        1 HOM      0.061367
     25 HB82       -2.6200    0.0980    0.1840 hc        1 HOM      0.061367
     26 HB83       -2.5330    0.9320    1.7890 hc        1 HOM      0.061367
     27 HO41        3.1400   -0.0180    5.8230 ho        1 HOM      0.428000
     28 HO11       -2.1040    2.1800   -3.2450 ho        1 HOM      0.403000
@<TRIPOS>BOND
     1    1    2 1
     2    1    9 2
     3    1   10 1
     4    2   13 2
     5    2   14 1
     6    3    4 ar
     7    3    8 ar
     8    3   14 1
     9    4    5 ar
    10    4   17 1
    11    5    6 ar
    12    5   15 1
    13    6    7 ar
    14    6   18 1
    15    7    8 ar
    16    7   19 1
    17    8    9 1
    18    9   12 1
    19   10   11 1
    20   10   20 1
    21   10   21 1
    22   11   16 1
    23   11   22 1
    24   11   23 1
    25   12   24 1
    26   12   25 1
    27   12   26 1
    28   15   27 1
    29   16   28 1
@<TRIPOS>SUBSTRUCTURE
     1 HOM         1 TEMP              0 ****  ****    0 ROOT
