@<TRIPOS>MOLECULE
HOP
   55    57     1     0     0
SMALL
bcc


@<TRIPOS>ATOM
      1 C1          0.2790    0.1390   -0.3380 ca        1 HOP     -0.129000
      2 C2          1.5850   -0.3240   -0.1810 ca        1 HOP     -0.127500
      3 C6         -0.4180    0.6310    0.7650 ca        1 HOP     -0.127500
      4 C5          0.1870    0.6600    2.0210 ca        1 HOP     -0.125500
      5 C4          1.4980    0.1970    2.1850 ca        1 HOP     -0.079300
      6 C3          2.1920   -0.2960    1.0730 ca        1 HOP     -0.125500
      7 C7          2.1370    0.2330    3.5370 c3        1 HOP     -0.015400
      8 C12         3.3750    1.1160    3.5320 c3        1 HOP     -0.110400
      9 C11         4.0310    1.1640    4.9110 c3        1 HOP      0.148100
     10 C10         4.3700   -0.2470    5.4170 c3        1 HOP     -0.021400
     11 C9          3.1240   -1.1260    5.3890 c3        1 HOP     -0.074400
     12 C8          2.5000   -1.1700    4.0110 c3        1 HOP     -0.075400
     13 C13         4.9520   -0.2140    6.7960 ca        1 HOP     -0.034300
     14 C14         6.2450   -0.7050    7.0180 ca        1 HOP     -0.130500
     15 C15         6.7950   -0.6920    8.2970 ca        1 HOP     -0.088000
     16 C16         6.0600   -0.1770    9.3720 ca        1 HOP     -0.147600
     17 C17         4.7670    0.3090    9.1580 ca        1 HOP     -0.088000
     18 C18         4.2180    0.2880    7.8780 ca        1 HOP     -0.130500
     19 O19         5.2590    1.8800    4.8380 oh        1 HOP     -0.595800
     20 C20         6.6860   -0.1920   10.7210 c         1 HOP      0.678700
     21 O21         7.4220   -1.1310   11.0980 o         1 HOP     -0.628100
     22 N22         6.4560    0.8880   11.5530 n         1 HOP     -0.573900
     23 C23         7.0450    0.9640   12.8600 c3        1 HOP      0.092000
     24 C24         6.5140   -0.0720   13.8580 c3        1 HOP     -0.116400
     25 C25         7.4250   -0.1950   15.0530 c3        1 HOP     -0.174400
     26 C26         8.8100   -0.7080   14.7830 c         1 HOP      0.623100
     27 O27         9.7510   -0.6000   15.5760 o         1 HOP     -0.510000
     28 O28         9.1470   -1.3670   13.6430 oh        1 HOP     -0.582100
     29 H1         -0.2000    0.1160   -1.3270 ha        1 HOP      0.132000
     30 H2          2.1380   -0.7140   -1.0480 ha        1 HOP      0.132000
     31 H6         -1.4490    0.9970    0.6460 ha        1 HOP      0.132000
     32 H5         -0.3700    1.0500    2.8850 ha        1 HOP      0.131000
     33 H3          3.2230   -0.6630    1.1900 ha        1 HOP      0.131000
     34 H7          1.4010    0.6680    4.2750 hc        1 HOP      0.051700
     35 H121        3.0950    2.1560    3.2220 hc        1 HOP      0.053700
     36 H122        4.1190    0.7310    2.7870 hc        1 HOP      0.053700
     37 H11         3.3450    1.6740    5.6440 h1        1 HOP      0.033700
     38 H10         5.1330   -0.6800    4.7080 hc        1 HOP      0.072700
     39 H91         2.3760   -0.7390    6.1290 hc        1 HOP      0.049200
     40 H92         3.4040   -2.1650    5.7050 hc        1 HOP      0.049200
     41 H81         1.5770   -1.8050    4.0390 hc        1 HOP      0.050200
     42 H82         3.2120   -1.6400    3.2840 hc        1 HOP      0.050200
     43 H14         6.8350   -1.0990    6.1770 ha        1 HOP      0.138500
     44 H15         7.8060   -1.0920    8.4770 ha        1 HOP      0.143000
     45 H17         4.1640    0.6950    9.9940 ha        1 HOP      0.143000
     46 H18         3.1990    0.6710    7.7190 ha        1 HOP      0.138500
     47 HO9         5.0510    2.7480    4.4730 ho        1 HOP      0.401000
     48 HN2         5.8380    1.6060   11.2670 hn        1 HOP      0.318500
     49 H231        6.8650    1.9970   13.2700 h1        1 HOP      0.057700
     50 H232        8.1610    0.8180   12.7550 h1        1 HOP      0.057700
     51 H241        6.3990   -1.0710   13.3570 hc        1 HOP      0.062700
     52 H242        5.4950    0.2360   14.2110 hc        1 HOP      0.062700
     53 H251        6.9600   -0.8970   15.8000 hc        1 HOP      0.082700
     54 H252        7.5320    0.8040   15.5570 hc        1 HOP      0.082700
     55 H222        8.4070   -1.3990   13.0130 ho        1 HOP      0.457000
@<TRIPOS>BOND
     1    1    2 ar  
     2    1    3 ar  
     3    1   29 1   
     4    2    6 ar  
     5    2   30 1   
     6    3    4 ar  
     7    3   31 1   
     8    4    5 ar  
     9    4   32 1   
    10    5    6 ar  
    11    5    7 1   
    12    6   33 1   
    13    7    8 1   
    14    7   12 1   
    15    7   34 1   
    16    8    9 1   
    17    8   35 1   
    18    8   36 1   
    19    9   10 1   
    20    9   19 1   
    21    9   37 1   
    22   10   11 1   
    23   10   13 1   
    24   10   38 1   
    25   11   12 1   
    26   11   39 1   
    27   11   40 1   
    28   12   41 1   
    29   12   42 1   
    30   13   14 ar  
    31   13   18 ar  
    32   14   15 ar  
    33   14   43 1   
    34   15   16 ar  
    35   15   44 1   
    36   16   17 ar  
    37   16   20 1   
    38   17   18 ar  
    39   17   45 1   
    40   18   46 1   
    41   19   47 1   
    42   20   21 2   
    43   20   22 1   
    44   22   23 1   
    45   22   48 1   
    46   23   24 1   
    47   23   49 1   
    48   23   50 1   
    49   24   25 1   
    50   24   51 1   
    51   24   52 1   
    52   25   26 1   
    53   25   53 1   
    54   25   54 1   
    55   26   27 2   
    56   26   28 1   
    57   28   55 1   
@<TRIPOS>SUBSTRUCTURE
     1 HOP         1 TEMP              0 ****  ****    0 ROOT
