@<TRIPOS>MOLECULE
HOQ
   35    35     1     0     0
SMALL
bcc


@<TRIPOS>ATOM
      1 C1           0.0000     0.0000     0.0000 c          1 HOQ       0.996600
      2 O1          -0.7130    -0.9900    -0.0810 o          1 HOQ      -0.907300
      3 OXT         -0.5110     1.2580     0.0970 o          1 HOQ      -0.907300
      4 C2           1.5300     0.0000     0.0000 c3         1 HOQ      -0.134700
      5 C21          2.1500     0.0000     1.4310 c3         1 HOQ       0.202800
      6 O22          3.5750    -0.1120     1.3210 oh         1 HOQ      -0.555800
      7 C3           2.0180    -1.1380    -0.8910 c3         1 HOQ       0.266600
      8 S4           1.3740    -0.9240    -2.5850 ss         1 HOQ      -0.485200
      9 C5           3.0410    -0.8570    -3.3340 c3         1 HOQ       0.065100
     10 C51          3.0660     0.1740    -4.4630 c3         1 HOQ       0.021900
     11 C52          3.3730    -2.2550    -3.8780 c3         1 HOQ       0.021900
     12 C6           3.8980    -0.4150    -2.1330 c3         1 HOQ       0.005500
     13 C8           5.3610    -0.6630    -2.3350 c          1 HOQ       0.996600
     14 O81          6.0450    -1.4160    -1.6570 o          1 HOQ      -0.908800
     15 O82          5.8310     0.0670    -3.3750 o          1 HOQ      -0.908800
     16 N7           3.4820    -1.1910    -0.9610 n7         1 HOQ      -0.526200
     17 C9           1.7040    -1.2460     2.2110 c3         1 HOQ      -0.039100
     18 C10          1.8240     1.2440     2.2660 c3         1 HOQ      -0.039100
     19 H2           1.8420     0.9230    -0.4730 hc         1 HOQ       0.056700
     20 HOM          3.9730     0.1170     2.1440 ho         1 HOQ       0.348000
     21 H3           1.6540    -2.0780    -0.4970 h2         1 HOQ       0.047700
     22 H511         3.9510     0.0240    -5.0700 hc         1 HOQ       0.005033
     23 H512         2.1820     0.0570    -5.0780 hc         1 HOQ       0.005033
     24 H513         3.0830     1.1720    -4.0410 hc         1 HOQ       0.005033
     25 H521         2.6240    -2.5460    -4.6040 hc         1 HOQ       0.005033
     26 H522         3.3800    -2.9670    -3.0610 hc         1 HOQ       0.005033
     27 H523         4.3470    -2.2370    -4.3500 hc         1 HOQ       0.005033
     28 H6           3.7310     0.6380    -1.9430 h1         1 HOQ       0.066700
     29 HN7          3.7770    -2.1410    -1.0680 hn         1 HOQ       0.260800
     30 H91          0.6220    -1.2840     2.2450 hc         1 HOQ       0.004200
     31 H92          2.0950    -1.2000     3.2210 hc         1 HOQ       0.004200
     32 H93          2.0810    -2.1350     1.7190 hc         1 HOQ       0.004200
     33 H101         2.4050     1.2270     3.1810 hc         1 HOQ       0.004200
     34 H102         0.7680     1.2490     2.5100 hc         1 HOQ       0.004200
     35 H103         2.0680     2.1340     1.6990 hc         1 HOQ       0.004200
@<TRIPOS>BOND
     1     1     2 1   
     2     1     3 1   
     3     1     4 1   
     4     4     5 1   
     5     4     7 1   
     6     4    19 1   
     7     5     6 1   
     8     5    17 1   
     9     5    18 1   
    10     6    20 1   
    11     7     8 1   
    12     7    16 1   
    13     7    21 1   
    14     8     9 1   
    15     9    10 1   
    16     9    11 1   
    17     9    12 1   
    18    10    22 1   
    19    10    23 1   
    20    10    24 1   
    21    11    25 1   
    22    11    26 1   
    23    11    27 1   
    24    12    13 1   
    25    12    16 1   
    26    12    28 1   
    27    13    14 1   
    28    13    15 1   
    29    16    29 1   
    30    17    30 1   
    31    17    31 1   
    32    17    32 1   
    33    18    33 1   
    34    18    34 1   
    35    18    35 1   
@<TRIPOS>SUBSTRUCTURE
     1 HOQ         1 TEMP              0 ****  ****    0 ROOT
