@<TRIPOS>MOLECULE
HOZ
   22    21     1     0     0
SMALL
bcc


@<TRIPOS>ATOM
      1 N          -0.6120    0.1830    1.0550 n3        1 HOZ     -0.922800
      2 CA          0.6910    0.1740    0.4390 c3        1 HOZ      0.172500
      3 C           1.6860   -0.5440    1.4030 c3        1 HOZ      0.094800
      4 N1          2.8570   -1.1070    0.6800 n4        1 HOZ     -0.834600
      5 CB          1.2640    1.5490    0.0370 c3        1 HOZ     -0.120400
      6 CG          1.1470    1.8040   -1.4510 c3        1 HOZ     -0.189400
      7 CD          2.0680    0.9310   -2.2500 c         1 HOZ      0.660100
      8 OE1         2.1980    1.1060   -3.5850 oh        1 HOZ     -0.533100
      9 OE2         2.7620    0.0040   -1.8030 o         1 HOZ     -0.600000
     10 HN1        -1.3400    0.2870    0.3780 hn        1 HOZ      0.386300
     11 HN2         1.6450    1.8430   -3.8890 ho        1 HOZ      0.451000
     12 HA          0.6050   -0.4590   -0.5000 h1        1 HOZ      0.077700
     13 H1          2.0650    0.1810    2.1770 hx        1 HOZ      0.115700
     14 H2          1.1630   -1.3980    1.9270 hx        1 HOZ      0.115700
     15 HN11        3.4740   -1.6010    1.3290 hn        1 HOZ      0.468133
     16 HN12        3.3790   -0.3540    0.2040 hn        1 HOZ      0.468133
     17 HB1         0.7270    2.3720    0.5820 hc        1 HOZ      0.068200
     18 HB2         2.3440    1.6270    0.3310 hc        1 HOZ      0.068200
     19 HG1         0.0930    1.6260   -1.8000 hc        1 HOZ      0.099200
     20 HG2         1.3970    2.8810   -1.6650 hc        1 HOZ      0.099200
     21 HN3        -0.6940    0.8760    1.7710 hn        1 HOZ      0.386300
     22 H13         2.5420   -1.7530   -0.0560 hn        1 HOZ      0.468133
@<TRIPOS>BOND
     1    1    2 1   
     2    1   10 1   
     3    1   21 1   
     4    2    3 1   
     5    2    5 1   
     6    2   12 1   
     7    3    4 1   
     8    3   13 1   
     9    3   14 1   
    10    4   15 1   
    11    4   16 1   
    12    4   22 1   
    13    5    6 1   
    14    5   17 1   
    15    5   18 1   
    16    6    7 1   
    17    6   19 1   
    18    6   20 1   
    19    7    8 1   
    20    7    9 2   
    21    8   11 1   
@<TRIPOS>SUBSTRUCTURE
     1 HOZ         1 TEMP              0 ****  ****    0 ROOT
