@<TRIPOS>MOLECULE
molecule
   89    92     1     0     0
SMALL
bcc


@<TRIPOS>ATOM
      1 C            0.0000     0.0000     0.0000 cc         1 HP1      -0.056400
      2 C1           0.5940    -0.0710     6.4510 cd         1 HP1      -0.159000
      3 C2           1.3570     0.0000     0.0000 cd         1 HP1      -0.135300
      4 C3           3.2020    -0.0040     1.7060 c3         1 HP1       0.035600
      5 C4           0.7050     0.0040     2.1310 cd         1 HP1      -0.204900
      6 C5           0.7400     0.0050     3.5490 c          1 HP1       0.714700
      7 C6           0.8810    -1.1650     5.6240 cd         1 HP1      -0.030400
      8 C8           1.0730    -2.2480     6.4210 cc         1 HP1      -0.177300
      9 C10          0.6270    -0.5270     7.7530 cc         1 HP1      -0.189900
     10 C11          0.3850     0.2740     8.9580 c          1 HP1       0.714700
     11 C12         -0.1250     2.3600     9.9950 cd         1 HP1      -0.026400
     12 C13          0.1160     1.9540    11.3150 cd         1 HP1      -0.164000
     13 C14         -0.4970     3.6680    10.0260 cc         1 HP1      -0.179300
     14 C16         -0.1250     3.0430    12.1260 cc         1 HP1      -0.187900
     15 C18          1.6280    -0.4030    19.8410 c3         1 HP1       0.111000
     16 C19          2.2170    -1.7260    20.3360 c3         1 HP1      -0.101400
     17 C20          2.2420    -1.7320    21.8660 c3         1 HP1       0.166800
     18 C21          4.2240    -3.1190    21.9680 c3         1 HP1       0.151100
     19 C22          2.6320    -3.1450    23.7930 c3         1 HP1       0.151100
     20 C23          0.0020     3.0790    13.5860 c          1 HP1       0.708700
     21 C25         -1.1500    -0.0000    -3.5600 cd         1 HP1       0.338000
     22 C26         -2.9100    -0.0040    -4.8110 cc         1 HP1       0.307200
     23 C27         -1.8390    -0.0010    -5.6420 cd         1 HP1      -0.255600
     24 C29          0.5080     2.0020    15.7130 c3         1 HP1       0.131000
     25 C30          1.0980     0.6800    16.2070 c3         1 HP1      -0.179400
     26 C31          1.1230     0.6740    17.7150 c          1 HP1       0.660100
     27 C32         -0.4310     0.0070     1.3400 cc         1 HP1       0.060100
     28 O1           0.5760     1.0450     4.1610 o          1 HP1      -0.594100
     29 O2           0.5320    -0.2230    10.0580 o          1 HP1      -0.633100
     30 O3          -0.3270     4.0770    14.2010 o          1 HP1      -0.627100
     31 O5           0.7090     1.6320    18.3320 o          1 HP1      -0.602100
     32 O6          -1.7190     0.0090     1.7740 oh         1 HP1      -0.492100
     33 N            1.7980     0.0000     1.2860 na         1 HP1      -0.031100
     34 N1           0.9540    -1.1450     4.2180 ns         1 HP1      -0.440100
     35 N3           0.9180    -1.8710     7.7160 na         1 HP1      -0.002100
     36 N4           0.0010     1.5610     8.8440 ns         1 HP1      -0.435100
     37 N5          -0.5020     4.0900    11.3180 na         1 HP1      -0.002100
     38 N6           1.6040    -0.3970    18.3770 ns         1 HP1      -0.587900
     39 N7           2.8090    -3.0010    22.3410 n3         1 HP1      -0.733600
     40 N8          -0.8290     0.0000    -1.1370 ns         1 HP1      -0.414100
     41 N9          -0.7260    -0.0010    -4.8600 na         1 HP1      -0.139900
     42 N10         -2.4670    -0.0060    -3.5550 nc         1 HP1      -0.675000
     43 N11          0.4840     2.0090    14.2480 ns         1 HP1      -0.582900
     44 H1           0.3900     0.9430     6.1300 ha         1 HP1       0.189000
     45 H2           1.9860    -0.0040    -0.8820 h4         1 HP1       0.217000
     46 H3           3.8380     0.1510     0.8430 h1         1 HP1       0.058367
     47 H4           3.4390    -0.9570     2.1630 h1         1 HP1       0.058367
     48 H5           3.3670     0.7920     2.4230 h1         1 HP1       0.058367
     49 H6           1.3120    -3.2480     6.0790 h4         1 HP1       0.167000
     50 H7           1.2500    -3.7600     8.5530 h1         1 HP1       0.059700
     51 H8           0.1280    -2.7300     9.4540 h1         1 HP1       0.059700
     52 H9           1.8660    -2.4020     9.5050 h1         1 HP1       0.059700
     53 H10          0.4290     0.9680    11.6380 ha         1 HP1       0.185000
     54 H11         -0.7520     4.2720     9.1630 h4         1 HP1       0.169000
     55 H12         -1.0820     6.0600    10.9170 h1         1 HP1       0.060367
     56 H13         -1.7140     5.3870    12.4260 h1         1 HP1       0.060367
     57 H14         -0.0140     5.8650    12.3140 h1         1 HP1       0.060367
     58 H15          2.2380     0.4200    20.1960 h1         1 HP1       0.054200
     59 H16          0.6190    -0.2930    20.2190 h1         1 HP1       0.054200
     60 H17          3.2270    -1.8350    19.9580 hc         1 HP1       0.052700
     61 H18          1.6080    -2.5480    19.9810 hc         1 HP1       0.052700
     62 H19          1.2330    -1.6230    22.2440 h1         1 HP1       0.037700
     63 H20          2.8510    -0.9100    22.2210 h1         1 HP1       0.037700
     64 H21          4.3010    -3.5130    20.9620 h1         1 HP1       0.032867
     65 H22          4.7240    -3.7880    22.6580 h1         1 HP1       0.032867
     66 H23          4.6910    -2.1420    22.0090 h1         1 HP1       0.032867
     67 H24          3.0180    -4.1070    24.1090 h1         1 HP1       0.032867
     68 H25          3.1710    -2.3550    24.3020 h1         1 HP1       0.032867
     69 H26          1.5790    -3.0800    24.0370 h1         1 HP1       0.032867
     70 H27         -3.9490    -0.0060    -5.1160 h4         1 HP1       0.045100
     71 H28         -1.8650     0.0000    -6.7250 h4         1 HP1       0.179000
     72 H29          0.6840    -0.0010    -6.4060 h1         1 HP1       0.063033
     73 H30          1.1670    -0.8870    -4.9520 h1         1 HP1       0.063033
     74 H31          1.1680     0.8820    -4.9510 h1         1 HP1       0.063033
     75 H32         -0.5020     2.1100    16.0910 h1         1 HP1       0.070700
     76 H33          1.1170     2.8240    16.0690 h1         1 HP1       0.070700
     77 H34          0.4880    -0.1420    15.8530 hc         1 HP1       0.063700
     78 H35          2.1070     0.5710    15.8290 hc         1 HP1       0.063700
     79 H36         -2.0380     0.8960     1.8050 ho         1 HP1       0.420000
     80 H37          1.1370    -1.9900     3.7150 hn         1 HP1       0.327500
     81 H38         -0.2330     1.9360     7.9470 hn         1 HP1       0.332500
     82 H39          1.9330    -1.1930    17.8680 hn         1 HP1       0.313500
     83 H41         -1.8240     0.0020    -1.0310 hn         1 HP1       0.354500
     84 H42          0.8430     1.2260    13.7380 hn         1 HP1       0.319500
     85 C9           1.0490    -2.7480     8.8830 c3         1 HP1       0.039600
     86 C24         -0.2830    -0.0010    -2.3690 c          1 HP1       0.614600
     87 C15         -0.8510     5.4380    11.7730 c3         1 HP1       0.038600
     88 C28          0.6640    -0.0020    -5.3220 c3         1 HP1       0.034600
     89 O4           0.9270    -0.0010    -2.4980 o          1 HP1      -0.637100
@<TRIPOS>BOND
     1    19    39 1
     2    39    17 1
     3    39    18 1
     4    17    16 1
     5    31    26 2
     6    16    15 1
     7    15    38 1
     8    26    38 1
     9    26    25 1
    10    30    20 2
    11    87    37 1
    12    24    25 1
    13    24    43 1
    14    20    43 1
    15    20    14 1
    16    37    14 1
    17    37    13 1
    18    14    12 2
    19    13    11 2
    20    12    11 1
    21    11    36 1
    22    29    10 2
    23    36    10 1
    24    10     9 1
    25     9    35 1
    26     9     2 2
    27    85    35 1
    28    35     8 1
    29     2     7 1
    30     8     7 2
    31     7    34 1
    32    34     6 1
    33    32    27 1
    34     6    28 2
    35     6     5 1
    36    27     5 2
    37    27     1 1
    38     5    33 1
    39     1    40 1
    40     1     3 2
    41    40    86 1
    42    42    22 1
    43    42    21 2
    44    33     3 1
    45    33     4 1
    46    22    23 2
    47    86    21 1
    48    86    89 2
    49    21    41 1
    50    23    41 1
    51    41    88 1
    52     2    44 1
    53     3    45 1
    54     4    46 1
    55     4    47 1
    56     4    48 1
    57     8    49 1
    58    85    50 1
    59    85    51 1
    60    85    52 1
    61    12    53 1
    62    13    54 1
    63    87    55 1
    64    87    56 1
    65    87    57 1
    66    15    58 1
    67    15    59 1
    68    16    60 1
    69    16    61 1
    70    17    62 1
    71    17    63 1
    72    18    64 1
    73    18    65 1
    74    18    66 1
    75    19    67 1
    76    19    68 1
    77    19    69 1
    78    22    70 1
    79    23    71 1
    80    88    72 1
    81    88    73 1
    82    88    74 1
    83    24    75 1
    84    24    76 1
    85    25    77 1
    86    25    78 1
    87    32    79 1
    88    34    80 1
    89    36    81 1
    90    38    82 1
    91    40    83 1
    92    43    84 1
@<TRIPOS>SUBSTRUCTURE
     1 HP1         1 TEMP              0 ****  ****    0 ROOT
