@<TRIPOS>MOLECULE
HP2
   89    92     1     0     0
SMALL
bcc


@<TRIPOS>ATOM
      1 N1           0.0000     0.0000     0.0000 ns         1 HP2       0.048900
      2 C1           2.2360     0.0000     1.1380 cc         1 HP2       0.081100
      3 C8           2.2070    -0.0070    -1.0960 cd         1 HP2      -0.314300
      4 N3           3.5070    -0.0050    -0.6970 na         1 HP2       0.484900
      5 C6           1.4080     0.0000     0.0000 cc         1 HP2      -0.204400
      6 C9           4.6720    -0.0110    -1.5830 c3         1 HP2      -0.025400
      7 C10          3.5460     0.0040     0.6860 cd         1 HP2      -0.417900
      8 C11          4.7110     0.0080     1.4920 c          1 HP2       0.625700
      9 O2           5.1590    -1.0400     1.9200 o          1 HP2      -0.648100
     10 N4           5.3230     1.1720     1.7850 ns         1 HP2       0.027900
     11 C12          6.5410     1.1690     2.4890 cc         1 HP2      -0.174400
     12 C13          7.2290     0.0360     2.9460 cc         1 HP2      -0.145000
     13 C14          7.2620     2.2640     2.8490 cd         1 HP2      -0.360300
     14 N5           8.3710     1.8560     3.5180 na         1 HP2       0.532900
     15 C15          9.4050     2.7350     4.0720 c3         1 HP2      -0.034400
     16 C16          8.3680     0.4820     3.5810 cd         1 HP2      -0.386900
     17 C23          9.3890    -0.3580     4.2170 c          1 HP2       0.641700
     18 O3          10.3070     0.1580     4.8290 o          1 HP2      -0.679100
     19 N7          12.6390   -10.8070     5.5250 n3         1 HP2      -0.525600
     20 C21         13.7520   -11.5850     6.0850 c3         1 HP2       0.166600
     21 C22         11.4580   -11.1110     6.3440 c3         1 HP2       0.166600
     22 C18         12.1650    -7.0450     5.4230 c3         1 HP2       0.051000
     23 C19         11.8330    -8.5200     5.1880 c3         1 HP2      -0.053400
     24 N6          11.0890    -6.2100     4.8860 ns         1 HP2      -0.200900
     25 N           -2.9540     0.0280    -2.2740 na         1 HP2       0.530900
     26 C2          -4.2430     0.1860    -1.8730 cc         1 HP2      -0.352300
     27 C           -4.2610     0.3810    -0.5280 cd         1 HP2      -0.176400
     28 C32         -2.9350     0.3390    -0.0710 cd         1 HP2      -0.140000
     29 C4          -2.1350     0.1130    -1.1710 cc         1 HP2      -0.391900
     30 C5          -0.6730    -0.0070    -1.1670 c          1 HP2       0.623700
     31 O1          -0.0690    -0.1130    -2.2190 o          1 HP2      -0.696100
     32 N9          -6.4900     1.1850     3.7750 na         1 HP2       0.374100
     33 C27         -7.7880     1.3500     4.1420 cc         1 HP2      -0.431600
     34 C26         -8.5360     1.2490     3.0160 cd         1 HP2       0.317200
     35 N10         -7.7190     1.0330     1.9870 nd         1 HP2      -0.606000
     36 C25         -6.4770     0.9930     2.4220 cc         1 HP2       0.119000
     37 C24         -5.2780     0.7740     1.5920 c          1 HP2       0.513600
     38 O4          -4.1780     0.7570     2.1080 o          1 HP2      -0.683100
     39 O5          12.1250    -4.3520     5.5100 o          1 HP2      -0.639100
     40 C31         11.1650    -4.8680     4.9790 c          1 HP2       0.574100
     41 C29         10.3900    -2.5350     4.6610 c3         1 HP2       0.063000
     42 N11          9.3130    -1.7000     4.1220 ns         1 HP2      -0.191900
     43 O6           1.8300     0.0060     2.4330 oh         1 HP2      -0.470100
     44 HN1         -0.5000    -0.0240     0.8670 hn         1 HP2       0.176500
     45 H8           1.8640    -0.0130    -2.1240 h4         1 HP2       0.204000
     46 H91          4.3490    -0.1740    -2.6040 h1         1 HP2       0.026367
     47 H92          5.1840     0.9420    -1.5140 h1         1 HP2       0.026367
     48 H93          5.3470    -0.8050    -1.2870 h1         1 HP2       0.026367
     49 HN4          4.8900     2.0410     1.5390 hn         1 HP2       0.163500
     50 H13          6.9250    -0.9960     2.8200 ha         1 HP2       0.172000
     51 H14          6.9960     3.2930     2.6360 h4         1 HP2       0.148000
     52 H151         9.4730     2.5820     5.1420 h1         1 HP2       0.032700
     53 H152         9.1470     3.7670     3.8710 h1         1 HP2       0.032700
     54 H153        10.3590     2.5040     3.6130 h1         1 HP2       0.032700
     55 H211        13.5640   -12.6420     5.9380 h1         1 HP2       0.004533
     56 H212        13.8400   -11.3780     7.1450 h1         1 HP2       0.004533
     57 H213        14.6730   -11.3100     5.5860 h1         1 HP2       0.004533
     58 H221        11.4320   -12.1720     6.5610 h1         1 HP2       0.004533
     59 H222        11.5090   -10.5530     7.2720 h1         1 HP2       0.004533
     60 H223        10.5620   -10.8300     5.8030 h1         1 HP2       0.004533
     61 H201        13.0570    -9.2090     6.8140 h1         1 HP2       0.015700
     62 H202        13.8880    -9.1470     5.2530 h1         1 HP2       0.015700
     63 H181        13.0950    -6.8010     4.9230 h1         1 HP2       0.026700
     64 H182        12.2680    -6.8630     6.4860 h1         1 HP2       0.026700
     65 H191        11.7320    -8.7020     4.1250 hc         1 HP2       0.025700
     66 H192        10.9030    -8.7640     5.6860 hc         1 HP2       0.025700
     67 HN6         10.2960    -6.6360     4.4480 hn         1 HP2       0.173500
     68 H31         -3.3730    -0.2570    -4.3040 h1         1 HP2       0.032033
     69 H32A        -1.8660     0.6050    -3.9650 h1         1 HP2       0.032033
     70 H33         -1.9650    -1.1410    -3.7000 h1         1 HP2       0.032033
     71 H2          -5.1120     0.1600    -2.5190 h4         1 HP2       0.150000
     72 HN8         -6.3110     0.6030    -0.1590 hn         1 HP2       0.178500
     73 H32         -2.6030     0.4580     0.9530 ha         1 HP2       0.175000
     74 H281        -5.6480     1.3850     5.6810 h1         1 HP2       0.034700
     75 H282        -4.8010     0.2660     4.6030 h1         1 HP2       0.034700
     76 H283        -4.6570     2.0120     4.3560 h1         1 HP2       0.034700
     77 H27         -8.1560     1.5260     5.1460 h4         1 HP2       0.156000
     78 H26         -9.6150     1.3320     2.9620 h4         1 HP2       0.004100
     79 H301         9.9560    -4.1910     3.3620 hc         1 HP2       0.029700
     80 H302         9.1270    -4.2540     4.9240 hc         1 HP2       0.029700
     81 H291        10.4900    -2.3520     5.7240 h1         1 HP2       0.041700
     82 H292        11.3200    -2.2900     4.1630 h1         1 HP2       0.041700
     83 H11          8.5130    -2.1270     3.6990 hn         1 HP2       0.182500
     84 HO6          1.7360    -0.8820     2.7370 ho         1 HP2       0.401000
     85 C3          -2.5110    -0.2070    -3.6500 c3         1 HP2      -0.033400
     86 N8          -5.4040     0.5920     0.2640 ns         1 HP2       0.057900
     87 C30         10.0570    -4.0100     4.4250 c3         1 HP2      -0.112400
     88 C28         -5.3230     1.2140     4.6620 c3         1 HP2      -0.024400
     89 C20         12.9570    -9.3920     5.7510 c3         1 HP2       0.144800
@<TRIPOS>BOND
     1     1     5 1   
     2     1    30 1   
     3     1    44 1   
     4     2     5 1   
     5     2     7 2   
     6     2    43 1   
     7     3     4 1   
     8     3     5 2   
     9     3    45 1   
    10     4     6 1   
    11     4     7 1   
    12     6    46 1   
    13     6    47 1   
    14     6    48 1   
    15     7     8 1   
    16     8     9 2   
    17     8    10 1   
    18    10    11 1   
    19    10    49 1   
    20    11    12 1   
    21    11    13 2   
    22    12    16 2   
    23    12    50 1   
    24    13    14 1   
    25    13    51 1   
    26    14    15 1   
    27    14    16 1   
    28    15    52 1   
    29    15    53 1   
    30    15    54 1   
    31    16    17 1   
    32    17    18 2   
    33    17    42 1   
    34    19    20 1   
    35    19    21 1   
    36    19    89 1   
    37    20    55 1   
    38    20    56 1   
    39    20    57 1   
    40    21    58 1   
    41    21    59 1   
    42    21    60 1   
    43    22    23 1   
    44    22    24 1   
    45    22    63 1   
    46    22    64 1   
    47    23    65 1   
    48    23    66 1   
    49    23    89 1   
    50    24    40 1   
    51    24    67 1   
    52    25    26 1   
    53    25    29 1   
    54    25    85 1   
    55    26    27 2   
    56    26    71 1   
    57    27    28 1   
    58    27    86 1   
    59    28    29 2   
    60    28    73 1   
    61    29    30 1   
    62    30    31 2   
    63    32    33 1   
    64    32    36 1   
    65    32    88 1   
    66    33    34 2   
    67    33    77 1   
    68    34    35 1   
    69    34    78 1   
    70    35    36 2   
    71    36    37 1   
    72    37    38 2   
    73    37    86 1   
    74    39    40 2   
    75    40    87 1   
    76    41    42 1   
    77    41    81 1   
    78    41    82 1   
    79    41    87 1   
    80    42    83 1   
    81    43    84 1   
    82    61    89 1   
    83    62    89 1   
    84    68    85 1   
    85    69    85 1   
    86    70    85 1   
    87    72    86 1   
    88    74    88 1   
    89    75    88 1   
    90    76    88 1   
    91    79    87 1   
    92    80    87 1   
@<TRIPOS>SUBSTRUCTURE
     1 HP2         1 TEMP              0 ****  ****    0 ROOT
