@<TRIPOS>MOLECULE
molecule
   89    92     1     0     0
SMALL
bcc


@<TRIPOS>ATOM
      1 N1           0.0000     0.0000     0.0000 ns         1 HP2      -0.428100
      2 C1           2.2360     0.0000     1.1380 cc         1 HP2       0.051100
      3 C8           2.2070    -0.0070    -1.0960 cd         1 HP2      -0.135300
      4 N3           3.5070    -0.0050    -0.6970 na         1 HP2      -0.027100
      5 C6           1.4080     0.0000     0.0000 cc         1 HP2      -0.049400
      6 C9           4.6720    -0.0110    -1.5830 c3         1 HP2       0.036600
      7 C10          3.5460     0.0040     0.6860 cd         1 HP2      -0.208900
      8 C11          4.7110     0.0080     1.4920 c          1 HP2       0.714700
      9 O2           5.1590    -1.0400     1.9200 o          1 HP2      -0.598100
     10 N4           5.3230     1.1720     1.7850 ns         1 HP2      -0.439100
     11 C12          6.5410     1.1690     2.4890 cc         1 HP2      -0.033400
     12 C13          7.2290     0.0360     2.9460 cc         1 HP2      -0.164000
     13 C14          7.2620     2.2640     2.8490 cd         1 HP2      -0.179300
     14 N5           8.3710     1.8560     3.5180 na         1 HP2      -0.001100
     15 C15          9.4050     2.7350     4.0720 c3         1 HP2       0.038600
     16 C16          8.3680     0.4820     3.5810 cd         1 HP2      -0.185900
     17 C23          9.3890    -0.3580     4.2170 c          1 HP2       0.707700
     18 O3          10.3070     0.1580     4.8290 o          1 HP2      -0.626100
     19 N7          12.6390   -10.8070     5.5250 n3         1 HP2      -0.672600
     20 C21         13.7520   -11.5850     6.0850 c3         1 HP2       0.122100
     21 C22         11.4580   -11.1110     6.3440 c3         1 HP2       0.122100
     22 C18         12.1650    -7.0450     5.4230 c3         1 HP2       0.111000
     23 C19         11.8330    -8.5200     5.1880 c3         1 HP2      -0.102400
     24 N6          11.0890    -6.2100     4.8860 ns         1 HP2      -0.587900
     25 N           -2.9540     0.0280    -2.2740 na         1 HP2      -0.003100
     26 C2          -4.2430     0.1860    -1.8730 cc         1 HP2      -0.171300
     27 C           -4.2610     0.3810    -0.5280 cd         1 HP2      -0.029400
     28 C32         -2.9350     0.3390    -0.0710 cd         1 HP2      -0.158000
     29 C4          -2.1350     0.1130    -1.1710 cc         1 HP2      -0.189900
     30 C5          -0.6730    -0.0070    -1.1670 c          1 HP2       0.711700
     31 O1          -0.0690    -0.1130    -2.2190 o          1 HP2      -0.642100
     32 N9          -6.4900     1.1850     3.7750 na         1 HP2      -0.137900
     33 C27         -7.7880     1.3500     4.1420 cc         1 HP2      -0.255600
     34 C26         -8.5360     1.2490     3.0160 cd         1 HP2       0.305200
     35 N10         -7.7190     1.0330     1.9870 nd         1 HP2      -0.679000
     36 C25         -6.4770     0.9930     2.4220 cc         1 HP2       0.337000
     37 C24         -5.2780     0.7740     1.5920 c          1 HP2       0.618600
     38 O4          -4.1780     0.7570     2.1080 o          1 HP2      -0.623100
     39 O5          12.1250    -4.3520     5.5100 o          1 HP2      -0.602100
     40 C31         11.1650    -4.8680     4.9790 c          1 HP2       0.661100
     41 C29         10.3900    -2.5350     4.6610 c3         1 HP2       0.131000
     42 N11          9.3130    -1.7000     4.1220 ns         1 HP2      -0.581900
     43 O6           1.8300     0.0060     2.4330 oh         1 HP2      -0.494100
     44 HN1         -0.5000    -0.0240     0.8670 hn         1 HP2       0.342500
     45 H8           1.8640    -0.0130    -2.1240 h4         1 HP2       0.218000
     46 H91          4.3490    -0.1740    -2.6040 h1         1 HP2       0.058033
     47 H92          5.1840     0.9420    -1.5140 h1         1 HP2       0.058033
     48 H93          5.3470    -0.8050    -1.2870 h1         1 HP2       0.058033
     49 HN4          4.8900     2.0410     1.5390 hn         1 HP2       0.329500
     50 H13          6.9250    -0.9960     2.8200 ha         1 HP2       0.186000
     51 H14          6.9960     3.2930     2.6360 h4         1 HP2       0.167000
     52 H151         9.4730     2.5820     5.1420 h1         1 HP2       0.061033
     53 H152         9.1470     3.7670     3.8710 h1         1 HP2       0.061033
     54 H153        10.3590     2.5040     3.6130 h1         1 HP2       0.061033
     55 H211        13.5640   -12.6420     5.9380 h1         1 HP2       0.035867
     56 H212        13.8400   -11.3780     7.1450 h1         1 HP2       0.035867
     57 H213        14.6730   -11.3100     5.5860 h1         1 HP2       0.035867
     58 H221        11.4320   -12.1720     6.5610 h1         1 HP2       0.035867
     59 H222        11.5090   -10.5530     7.2720 h1         1 HP2       0.035867
     60 H223        10.5620   -10.8300     5.8030 h1         1 HP2       0.035867
     61 H201        13.0570    -9.2090     6.8140 h1         1 HP2       0.040700
     62 H202        13.8880    -9.1470     5.2530 h1         1 HP2       0.040700
     63 H181        13.0950    -6.8010     4.9230 h1         1 HP2       0.054200
     64 H182        12.2680    -6.8630     6.4860 h1         1 HP2       0.054200
     65 H191        11.7320    -8.7020     4.1250 hc         1 HP2       0.053200
     66 H192        10.9030    -8.7640     5.6860 hc         1 HP2       0.053200
     67 HN6         10.2960    -6.6360     4.4480 hn         1 HP2       0.313500
     68 H31         -3.3730    -0.2570    -4.3040 h1         1 HP2       0.060033
     69 H32A        -1.8660     0.6050    -3.9650 h1         1 HP2       0.060033
     70 H33         -1.9650    -1.1410    -3.7000 h1         1 HP2       0.060033
     71 H2          -5.1120     0.1600    -2.5190 h4         1 HP2       0.171000
     72 HN8         -6.3110     0.6030    -0.1590 hn         1 HP2       0.345500
     73 H32         -2.6030     0.4580     0.9530 ha         1 HP2       0.190000
     74 H281        -5.6480     1.3850     5.6810 h1         1 HP2       0.064033
     75 H282        -4.8010     0.2660     4.6030 h1         1 HP2       0.064033
     76 H283        -4.6570     2.0120     4.3560 h1         1 HP2       0.064033
     77 H27         -8.1560     1.5260     5.1460 h4         1 HP2       0.179000
     78 H26         -9.6150     1.3320     2.9620 h4         1 HP2       0.044100
     79 H301         9.9560    -4.1910     3.3620 hc         1 HP2       0.064700
     80 H302         9.1270    -4.2540     4.9240 hc         1 HP2       0.064700
     81 H291        10.4900    -2.3520     5.7240 h1         1 HP2       0.070700
     82 H292        11.3200    -2.2900     4.1630 h1         1 HP2       0.070700
     83 H11          8.5130    -2.1270     3.6990 hn         1 HP2       0.320500
     84 HO6          1.7360    -0.8820     2.7370 ho         1 HP2       0.419000
     85 C3          -2.5110    -0.2070    -3.6500 c3         1 HP2       0.038600
     86 N8          -5.4040     0.5920     0.2640 ns         1 HP2      -0.424100
     87 C30         10.0570    -4.0100     4.4250 c3         1 HP2      -0.179400
     88 C28         -5.3230     1.2140     4.6620 c3         1 HP2       0.033600
     89 C20         12.9570    -9.3920     5.7510 c3         1 HP2       0.138800
@<TRIPOS>BOND
     1     1     5 1
     2     1    30 1
     3     1    44 1
     4     2     5 1
     5     2     7 2
     6     2    43 1
     7     3     4 1
     8     3     5 2
     9     3    45 1
    10     4     6 1
    11     4     7 1
    12     6    46 1
    13     6    47 1
    14     6    48 1
    15     7     8 1
    16     8     9 2
    17     8    10 1
    18    10    11 1
    19    10    49 1
    20    11    12 1
    21    11    13 2
    22    12    16 2
    23    12    50 1
    24    13    14 1
    25    13    51 1
    26    14    15 1
    27    14    16 1
    28    15    52 1
    29    15    53 1
    30    15    54 1
    31    16    17 1
    32    17    18 2
    33    17    42 1
    34    19    20 1
    35    19    21 1
    36    19    89 1
    37    20    55 1
    38    20    56 1
    39    20    57 1
    40    21    58 1
    41    21    59 1
    42    21    60 1
    43    89    23 1
    44    89    61 1
    45    89    62 1
    46    22    23 1
    47    22    24 1
    48    22    63 1
    49    22    64 1
    50    23    65 1
    51    23    66 1
    52    24    40 1
    53    24    67 1
    54    85    25 1
    55    85    68 1
    56    85    69 1
    57    85    70 1
    58    25    26 1
    59    25    29 1
    60    26    27 2
    61    26    71 1
    62    86    27 1
    63    86    37 1
    64    86    72 1
    65    27    28 1
    66    28    29 2
    67    28    73 1
    68    29    30 1
    69    30    31 2
    70    88    32 1
    71    88    74 1
    72    88    75 1
    73    88    76 1
    74    32    33 1
    75    32    36 1
    76    33    34 2
    77    33    77 1
    78    34    35 1
    79    34    78 1
    80    35    36 2
    81    36    37 1
    82    37    38 2
    83    39    40 2
    84    40    87 1
    85    87    41 1
    86    87    79 1
    87    87    80 1
    88    41    42 1
    89    41    81 1
    90    41    82 1
    91    42    83 1
    92    43    84 1
@<TRIPOS>SUBSTRUCTURE
     1 HP2         1 TEMP              0 ****  ****    0 ROOT
