@<TRIPOS>MOLECULE
HP3
   13    12     1     0     0
SMALL
bcc


@<TRIPOS>ATOM
      1 C1         -0.0640    0.0080   -0.0350 c3        1 HP3     -0.095100
      2 C2          1.4490    0.0900   -0.0900 c3        1 HP3      0.144100
      3 O2          1.9070    0.3140    1.2350 oh        1 HP3     -0.602800
      4 C3          2.0400   -1.2090   -0.6490 c3        1 HP3      0.089400
      5 O3          3.4470   -1.0280   -0.6730 oh        1 HP3     -0.612800
      6 H11        -0.3850   -0.8520    0.6010 hc        1 HP3      0.046367
      7 H12        -0.4710   -0.1230   -1.0650 hc        1 HP3      0.046367
      8 H13        -0.4750    0.9460    0.4090 hc        1 HP3      0.046367
      9 H2          1.7750    0.9500   -0.7420 h1        1 HP3      0.044700
     10 HO2         2.8720    0.2800    1.2010 ho        1 HP3      0.416000
     11 H31         1.7710   -2.0740    0.0130 h1        1 HP3      0.034200
     12 H32         1.6570   -1.3950   -1.6870 h1        1 HP3      0.034200
     13 HO3         3.8330   -1.8700   -0.9370 ho        1 HP3      0.407000
@<TRIPOS>BOND
     1    1    2 1   
     2    1    6 1   
     3    1    7 1   
     4    1    8 1   
     5    2    3 1   
     6    2    4 1   
     7    2    9 1   
     8    3   10 1   
     9    4    5 1   
    10    4   11 1   
    11    4   12 1   
    12    5   13 1   
@<TRIPOS>SUBSTRUCTURE
     1 HP3         1 TEMP              0 ****  ****    0 ROOT
