@<TRIPOS>MOLECULE
molecule
   13    12     1     0     0
SMALL
bcc


@<TRIPOS>ATOM
      1 C1           0.0000     0.0000     0.0000 c3         1 HP3      -0.113100
      2 C2           1.5300     0.0000     0.0000 c3         1 HP3       0.149100
      3 O2           2.0070     0.0000     1.3460 oh         1 HP3      -0.595800
      4 C3           2.0400    -1.2470    -0.7230 c3         1 HP3       0.136400
      5 O3           3.4680    -1.2470    -0.7240 oh         1 HP3      -0.604800
      6 H11         -0.3610    -0.8640     0.5440 hc         1 HP3       0.043700
      7 H12         -0.3610     0.9030     0.4770 hc         1 HP3       0.043700
      8 H13         -0.3610    -0.0390    -1.0210 hc         1 HP3       0.043700
      9 H2           1.8900     0.8850    -0.5100 h1         1 HP3       0.037700
     10 HO2          2.3350     0.8570     1.5630 ho         1 HP3       0.403000
     11 H31          1.6800    -2.1330    -0.2130 h1         1 HP3       0.027700
     12 H32          1.6790    -1.2460    -1.7440 h1         1 HP3       0.027700
     13 HO3          3.7830    -1.9680    -1.2420 ho         1 HP3       0.401000
@<TRIPOS>BOND
     1     1     2 1
     2     1     6 1
     3     1     7 1
     4     1     8 1
     5     2     3 1
     6     2     4 1
     7     2     9 1
     8     3    10 1
     9     4     5 1
    10     4    11 1
    11     4    12 1
    12     5    13 1
@<TRIPOS>SUBSTRUCTURE
     1 HP3         1 TEMP              0 ****  ****    0 ROOT
