@<TRIPOS>MOLECULE
molecule
    5     4     1     0     0
SMALL
bcc


@<TRIPOS>ATOM
      1 P1           0.0000     0.0000     0.0000 p5         1 HP4       0.991800
      2 O1           1.5450     0.0000     0.0000 o          1 HP4      -0.808500
      3 O2          -0.5160     0.0000     1.4570 o          1 HP4      -0.808500
      4 H4          -0.4680    -1.1470    -0.6630 hp         1 HP4      -0.187400
      5 H3          -0.4680     1.1470    -0.6630 hp         1 HP4      -0.187400
@<TRIPOS>BOND
     1     3     1 1
     2     1     2 1
     3     1     4 1
     4     1     5 1
@<TRIPOS>SUBSTRUCTURE
     1 HP4         1 TEMP              0 ****  ****    0 ROOT
