@<TRIPOS>MOLECULE
HP6
   23    22     1     0     0
SMALL
bcc


@<TRIPOS>ATOM
      1 C20         0.0100    0.0000   -0.0120 c3        1 HP6     -0.092100
      2 C21         1.5160    0.0010    0.0160 c3        1 HP6     -0.080400
      3 C22         2.0460   -0.0000    1.4350 c3        1 HP6     -0.079400
      4 C23         3.5590    0.0010    1.4580 c3        1 HP6     -0.079400
      5 C24         4.0870   -0.0010    2.8770 c3        1 HP6     -0.079400
      6 C25         5.6010   -0.0000    2.9020 c3        1 HP6     -0.080400
      7 C26         6.1310   -0.0010    4.3120 c3        1 HP6     -0.092100
      8 H201       -0.3950    0.9050    0.5030 hc        1 HP6      0.032700
      9 H202       -0.3940   -0.9050    0.5020 hc        1 HP6      0.032700
     10 H203       -0.3590    0.0010   -1.0670 hc        1 HP6      0.032700
     11 H211        1.9040   -0.9010   -0.5280 hc        1 HP6      0.038700
     12 H212        1.9030    0.9040   -0.5260 hc        1 HP6      0.038700
     13 H221        1.6610   -0.9030    1.9780 hc        1 HP6      0.039700
     14 H222        1.6600    0.9020    1.9790 hc        1 HP6      0.039700
     15 H231        3.9440   -0.9010    0.9130 hc        1 HP6      0.038700
     16 H232        3.9430    0.9040    0.9150 hc        1 HP6      0.038700
     17 H241        3.7030   -0.9030    3.4210 hc        1 HP6      0.039700
     18 H242        3.7020    0.9010    3.4220 hc        1 HP6      0.039700
     19 H251        5.9830    0.9030    2.3560 hc        1 HP6      0.038700
     20 H252        5.9830   -0.9020    2.3550 hc        1 HP6      0.038700
     21 H261        5.7800   -0.9060    4.8650 hc        1 HP6      0.032700
     22 H262        5.7800    0.9040    4.8650 hc        1 HP6      0.032700
     23 H263        7.2470   -0.0010    4.3070 hc        1 HP6      0.032700
@<TRIPOS>BOND
     1    1    2 1   
     2    1    8 1   
     3    1    9 1   
     4    1   10 1   
     5    2    3 1   
     6    2   11 1   
     7    2   12 1   
     8    3    4 1   
     9    3   13 1   
    10    3   14 1   
    11    4    5 1   
    12    4   15 1   
    13    4   16 1   
    14    5    6 1   
    15    5   17 1   
    16    5   18 1   
    17    6    7 1   
    18    6   19 1   
    19    6   20 1   
    20    7   21 1   
    21    7   22 1   
    22    7   23 1   
@<TRIPOS>SUBSTRUCTURE
     1 HP6         1 TEMP              0 ****  ****    0 ROOT
