@<TRIPOS>MOLECULE
molecule
   23    22     1     0     0
SMALL
bcc


@<TRIPOS>ATOM
      1 C20          0.0000     0.0000     0.0000 c3         1 HP6      -0.092100
      2 C21          1.5300     0.0000     0.0000 c3         1 HP6      -0.084400
      3 C22          2.0410     0.0000     1.4420 c3         1 HP6      -0.081400
      4 C23          3.5710    -0.0000     1.4410 c3         1 HP6      -0.082400
      5 C24          4.0810     0.0000     2.8830 c3         1 HP6      -0.081400
      6 C25          5.6110    -0.0000     2.8830 c3         1 HP6      -0.084400
      7 C26          6.1220    -0.0000     4.3250 c3         1 HP6      -0.092100
      8 H201        -0.3610    -0.0000    -1.0210 hc         1 HP6       0.032367
      9 H202        -0.3610    -0.8850     0.5110 hc         1 HP6       0.032367
     10 H203        -0.3610     0.8850     0.5110 hc         1 HP6       0.032367
     11 H211         1.8910     0.8840    -0.5110 hc         1 HP6       0.039700
     12 H212         1.8910    -0.8840    -0.5110 hc         1 HP6       0.039700
     13 H221         1.6800     0.8840     1.9530 hc         1 HP6       0.040700
     14 H222         1.6800    -0.8840     1.9530 hc         1 HP6       0.040700
     15 H231         3.9320     0.8840     0.9300 hc         1 HP6       0.040700
     16 H232         3.9320    -0.8840     0.9300 hc         1 HP6       0.040700
     17 H241         3.7210     0.8840     3.3940 hc         1 HP6       0.040700
     18 H242         3.7210    -0.8840     3.3940 hc         1 HP6       0.040700
     19 H251         5.9720    -0.8840     2.3720 hc         1 HP6       0.039700
     20 H252         5.9720     0.8840     2.3720 hc         1 HP6       0.039700
     21 H261         5.7620    -0.8850     4.8360 hc         1 HP6       0.032367
     22 H262         7.2060    -0.0000     4.3240 hc         1 HP6       0.032367
     23 H263         5.7620     0.8850     4.8360 hc         1 HP6       0.032367
@<TRIPOS>BOND
     1     1     2 1
     2     1     8 1
     3     1     9 1
     4     1    10 1
     5     2     3 1
     6     2    11 1
     7     2    12 1
     8     3     4 1
     9     3    13 1
    10     3    14 1
    11     4     5 1
    12     4    15 1
    13     4    16 1
    14     5     6 1
    15     5    17 1
    16     5    18 1
    17     6     7 1
    18     6    19 1
    19     6    20 1
    20     7    21 1
    21     7    22 1
    22     7    23 1
@<TRIPOS>SUBSTRUCTURE
     1 HP6         1 TEMP              0 ****  ****    0 ROOT
