@<TRIPOS>MOLECULE
HP8
   51    54     1     0     0
SMALL
bcc


@<TRIPOS>ATOM
      1 S            0.0000     0.0000     0.0000 s6         1 HP8       1.367100
      2 N1           8.9790     0.1120     5.4200 nb         1 HP8      -0.747000
      3 C2           9.1290    -0.3630     4.1960 ca         1 HP8       0.689900
      4 N3           8.1140    -0.5450     3.3790 nb         1 HP8      -0.671000
      5 C4           6.8740    -0.2520     3.7620 ca         1 HP8       0.275800
      6 C5           6.6620     0.2560     5.0550 ca         1 HP8      -0.244200
      7 C6           7.7770     0.4320     5.8900 ca         1 HP8       0.591200
      8 N6           7.6290     0.9290     7.1740 nv         1 HP8      -0.483500
      9 N7           5.3300     0.4670     5.1860 nc         1 HP8      -0.494100
     10 C8           4.7270     0.1280     4.0830 cd         1 HP8       0.249700
     11 N9           5.6360    -0.3210     3.1740 na         1 HP8       0.206000
     12 O9           0.3880     2.0120     1.9230 o          1 HP8      -0.557100
     13 C1'          5.3470    -0.7910     1.8170 c3         1 HP8       0.155800
     14 C1S         -0.6520     1.0580     3.7820 ca         1 HP8      -0.187600
     15 C2'          5.1440    -2.3270     1.8030 c3         1 HP8       0.128100
     16 O2'          6.3950    -3.0050     1.6640 oh         1 HP8      -0.533800
     17 C21         -0.2170     1.0580     2.3720 c          1 HP8       0.665700
     18 C2S         -0.3770     2.1580     4.6030 ca         1 HP8       0.181100
     19 O2S          0.2930     3.2300     4.1060 oh         1 HP8      -0.452100
     20 C3'          4.2660    -2.5270     0.5450 c3         1 HP8       0.130100
     21 O3'          5.0700    -2.9080    -0.5720 oh         1 HP8      -0.545800
     22 C3S         -0.7930     2.1470     5.9310 ca         1 HP8       0.068100
     23 O3S         -0.5290     3.2120     6.7350 oh         1 HP8      -0.474100
     24 C4'          3.6290    -1.1450     0.3060 c3         1 HP8       0.150100
     25 O4'          4.0770    -0.2760     1.3610 os         1 HP8      -0.385600
     26 C4S         -1.4760     1.0520     6.4330 ca         1 HP8      -0.113000
     27 C5'          2.1030    -1.2620     0.3380 c3         1 HP8       0.247400
     28 O5'          1.5220     0.0000     0.0000 os         1 HP8      -0.432500
     29 C5S         -1.7490    -0.0350     5.6200 ca         1 HP8      -0.105000
     30 C6S         -1.3480    -0.0370     4.3030 ca         1 HP8      -0.080000
     31 NHS         -0.4890     0.0000     1.5830 ns         1 HP8      -0.356300
     32 OS1         -0.4010     1.2490    -0.5440 o          1 HP8      -0.586800
     33 OS2         -0.4010    -1.2500    -0.5440 o          1 HP8      -0.586800
     34 HN6          6.7190     1.1610     7.5190 hn         1 HP8       0.276300
     35 HN6A         8.4330     1.0560     7.7570 hn         1 HP8       0.276300
     36 H8           3.6590     0.1950     3.9140 h5         1 HP8       0.039800
     37 H1'          6.1370    -0.5080     1.1330 h2         1 HP8       0.075700
     38 H2'          4.6190    -2.6530     2.6930 h1         1 HP8       0.019700
     39 HO2'         6.3590    -3.8290     2.1220 ho         1 HP8       0.389000
     40 HO2S        -0.2840     3.9740     4.0760 ho         1 HP8       0.408000
     41 H3'          3.4980    -3.2670     0.7370 h1         1 HP8       0.009700
     42 HO3'         4.7220    -3.6960    -0.9560 ho         1 HP8       0.392000
     43 HO3S        -1.3380     3.5630     7.0680 ho         1 HP8       0.400000
     44 H4'          3.9520    -0.7540    -0.6520 h1         1 HP8       0.059700
     45 H4S         -1.7970     1.0450     7.4680 ha         1 HP8       0.114000
     46 H5'          1.7850    -1.5520     1.3320 h1         1 HP8       0.016200
     47 H5'A         1.7830    -2.0100    -0.3770 h1         1 HP8       0.016200
     48 H5S         -2.2850    -0.8860     6.0210 ha         1 HP8       0.109000
     49 H6S         -1.5650    -0.8910     3.6720 ha         1 HP8       0.102000
     50 HNHS        -1.0030    -0.7770     1.9480 hn         1 HP8       0.237500
     51 H2          10.1260    -0.6110     3.8530 h5         1 HP8      -0.004900
@<TRIPOS>BOND
     1     1    28 1   
     2     1    31 1   
     3     1    32 2   
     4     1    33 2   
     5     2     3 ar  
     6     2     7 ar  
     7     3     4 ar  
     8     3    51 1   
     9     4     5 ar  
    10     5     6 ar  
    11     5    11 1   
    12     6     7 ar  
    13     6     9 1   
    14     7     8 1   
    15     8    34 1   
    16     8    35 1   
    17     9    10 2   
    18    10    11 1   
    19    10    36 1   
    20    11    13 1   
    21    12    17 2   
    22    13    15 1   
    23    13    25 1   
    24    13    37 1   
    25    14    17 1   
    26    14    18 ar  
    27    14    30 ar  
    28    15    16 1   
    29    15    20 1   
    30    15    38 1   
    31    16    39 1   
    32    17    31 1   
    33    18    19 1   
    34    18    22 ar  
    35    19    40 1   
    36    20    21 1   
    37    20    24 1   
    38    20    41 1   
    39    21    42 1   
    40    22    23 1   
    41    22    26 ar  
    42    23    43 1   
    43    24    25 1   
    44    24    27 1   
    45    24    44 1   
    46    26    29 ar  
    47    26    45 1   
    48    27    28 1   
    49    27    46 1   
    50    27    47 1   
    51    29    30 ar  
    52    29    48 1   
    53    30    49 1   
    54    31    50 1   
@<TRIPOS>SUBSTRUCTURE
     1 HP8         1 TEMP              0 ****  ****    0 ROOT
