@<TRIPOS>MOLECULE
HPA
   14    15     1     0     0
SMALL
bcc


@<TRIPOS>ATOM
      1 N1         -0.0160    0.0000   -0.0120 n         1 HPA     -0.485400
      2 C2          1.3770    0.0000    0.0210 cc        1 HPA      0.469800
      3 N3          2.1580   -0.0000    1.0830 nd        1 HPA     -0.628700
      4 C4          1.4860    0.0000    2.3070 cd        1 HPA      0.553300
      5 C5          0.0420    0.0000    2.3700 cc        1 HPA     -0.328200
      6 C6         -0.7800    0.0010    1.1720 c         1 HPA      0.733100
      7 O6         -2.0230    0.0010    1.1290 o         1 HPA     -0.633500
      8 N7         -0.2980    0.0000    3.7160 na        1 HPA     -0.276900
      9 C8          0.9100    0.0000    4.4180 cc        1 HPA      0.435400
     10 N9          2.0020   -0.0000    3.6130 nd        1 HPA     -0.633000
     11 HN1        -0.4950    0.0010   -0.8840 hn        1 HPA      0.341500
     12 H2          1.8790   -0.0000   -0.9720 h5        1 HPA      0.058800
     13 HN7        -1.2160    0.0010    4.0790 hn        1 HPA      0.323700
     14 H8          0.9500    0.0000    5.5140 h5        1 HPA      0.070100
@<TRIPOS>BOND
     1    1    2 1   
     2    1    6 1   
     3    1   11 1   
     4    2    3 2   
     5    2   12 1   
     6    3    4 1   
     7    4    5 2   
     8    4   10 1   
     9    5    6 1   
    10    5    8 1   
    11    6    7 2   
    12    8    9 1   
    13    8   13 1   
    14    9   10 2   
    15    9   14 1   
@<TRIPOS>SUBSTRUCTURE
     1 HPA         1 TEMP              0 ****  ****    0 ROOT
