@<TRIPOS>MOLECULE
HPB
   28    28     1     0     0
SMALL
bcc


@<TRIPOS>ATOM
      1 C1           0.0000     0.0000     0.0000 c3         1 HPB      -0.046100
      2 C2           1.5300     0.0000     0.0000 c3         1 HPB       0.187100
      3 C3           2.0410     0.0000     1.4420 c3         1 HPB      -0.087500
      4 C4           3.5700    -0.0010     1.4410 c3         1 HPB       0.034900
      5 C1'          4.0730    -0.0010     2.8610 ca         1 HPB      -0.180300
      6 C2'          4.3040    -1.1970     3.5130 ca         1 HPB      -0.104000
      7 C3'          4.7650    -1.1970     4.8160 ca         1 HPB      -0.074500
      8 C4'          4.9970     0.0010     5.4660 ca         1 HPB      -0.063000
      9 C5'          4.7670     1.1960     4.8140 ca         1 HPB      -0.074500
     10 C6'          4.3100     1.1970     3.5100 ca         1 HPB      -0.104000
     11 O2           2.0060     1.1660    -0.6740 oh         1 HPB      -0.555800
     12 N3           1.5520    -1.1990     2.1340 nz         1 HPB       0.054400
     13 H11         -0.3610    -1.0110     0.1440 hc         1 HPB       0.027700
     14 H12         -0.3610     0.6300     0.8040 hc         1 HPB       0.027700
     15 H13         -0.3610     0.3810    -0.9480 hc         1 HPB       0.027700
     16 H2           1.8910    -0.8850    -0.5110 h1         1 HPB       0.013700
     17 H3           1.6810     0.8850     1.9530 hx         1 HPB       0.105700
     18 H41          3.9310    -0.8860     0.9310 hc         1 HPB       0.058700
     19 H42          3.9320     0.8830     0.9300 hc         1 HPB       0.058700
     20 H2'          4.1230    -2.1350     3.0030 ha         1 HPB       0.105500
     21 H3'          4.9460    -2.1350     5.3260 ha         1 HPB       0.121500
     22 H4'          5.3570     0.0020     6.4880 ha         1 HPB       0.123000
     23 H5'          4.9510     2.1340     5.3240 ha         1 HPB       0.121500
     24 H6'          4.1300     2.1350     2.9990 ha         1 HPB       0.105500
     25 HO2          2.1660     0.9610    -1.5810 ho         1 HPB       0.423000
     26 HN31         1.6320    -1.0690     3.1230 hn         1 HPB       0.230800
     27 HN32         2.0980    -1.9910     1.8560 hn         1 HPB       0.230800
     28 H33          0.5930    -1.3540     1.8950 hn         1 HPB       0.230800
@<TRIPOS>BOND
     1     1     2 1   
     2     1    13 1   
     3     1    14 1   
     4     1    15 1   
     5     2     3 1   
     6     2    11 1   
     7     2    16 1   
     8     3     4 1   
     9     3    12 1   
    10     3    17 1   
    11     4     5 1   
    12     4    18 1   
    13     4    19 1   
    14     5     6 ar  
    15     5    10 ar  
    16     6     7 ar  
    17     6    20 1   
    18     7     8 ar  
    19     7    21 1   
    20     8     9 ar  
    21     8    22 1   
    22     9    10 ar  
    23     9    23 1   
    24    10    24 1   
    25    11    25 1   
    26    12    26 1   
    27    12    27 1   
    28    12    28 1   
@<TRIPOS>SUBSTRUCTURE
     1 HPB         1 TEMP              0 ****  ****    0 ROOT
