@<TRIPOS>MOLECULE
molecule
   24    23     1     0     0
SMALL
bcc


@<TRIPOS>ATOM
      1 P            0.0000     0.0000     0.0000 p5         1 HPD       1.158900
      2 O5'          1.6090     0.0000     0.0000 os         1 HPD      -0.542200
      3 O1P         -0.4930     0.0000     1.3950 o          1 HPD      -0.912833
      4 O2P         -0.5380     1.3140    -0.7590 o          1 HPD      -0.912833
      5 O3P         -0.5370    -1.3140    -0.7580 o          1 HPD      -0.912833
      6 C5'          2.0240    -1.1830     0.6830 c3         1 HPD       0.146400
      7 O4'          4.0580    -0.0980     1.4030 oh         1 HPD      -0.619800
      8 O3'          3.4870    -3.6590     0.7650 oh         1 HPD      -0.604800
      9 O1'          7.3930    -3.9000     2.2490 oh         1 HPD      -0.621800
     10 C3'          3.9950    -2.5120     1.4500 c3         1 HPD       0.141100
     11 C4'          3.5500    -1.2450     0.7180 c3         1 HPD       0.132100
     12 H5'1         1.6390    -2.0530     0.1640 h1         1 HPD       0.049700
     13 H5'2         1.6400    -1.1680     1.6960 h1         1 HPD       0.049700
     14 HO'4         4.3650     0.5330     0.7740 ho         1 HPD       0.401000
     15 HO'3         2.9490    -4.1640     1.3530 ho         1 HPD       0.398000
     16 H1'1         5.5820    -4.6970     1.6730 h1         1 HPD       0.017700
     17 H1'2         5.5800    -3.8560     3.2290 h1         1 HPD       0.017700
     18 HO'1         7.6650    -4.6700     2.7210 ho         1 HPD       0.381000
     19 H3'          3.6110    -2.4970     2.4630 h1         1 HPD       0.039700
     20 H4'          3.9350    -1.2600    -0.2950 h1         1 HPD       0.033700
     21 C2'          5.5230    -2.5740     1.4850 c3         1 HPD      -0.091400
     22 C1'          5.9660    -3.8420     2.2170 c3         1 HPD       0.131400
     23 H2'1         5.9070    -2.5890     0.4720 hc         1 HPD       0.059200
     24 H2'2         5.9070    -1.7050     2.0040 hc         1 HPD       0.059200
@<TRIPOS>BOND
     1     1     2 1
     2     1     3 1
     3     1     4 1
     4     1     5 1
     5     2     6 1
     6     6    11 1
     7     6    12 1
     8     6    13 1
     9     7    11 1
    10     7    14 1
    11     8    10 1
    12     8    15 1
    13    22     9 1
    14    22    21 1
    15    22    16 1
    16    22    17 1
    17     9    18 1
    18    10    11 1
    19    10    21 1
    20    10    19 1
    21    11    20 1
    22    21    23 1
    23    21    24 1
@<TRIPOS>SUBSTRUCTURE
     1 HPD         1 TEMP              0 ****  ****    0 ROOT
