@<TRIPOS>MOLECULE
HPD
   24    20     1     0     0
SMALL
bcc


@<TRIPOS>ATOM
      1 P           0.0150   -0.4200    0.6060 p5        1 HPD      1.530500
      2 O5'         1.7850   -0.0170    0.1450 os        1 HPD     -0.500000
      3 O1P         0.2740   -1.3500    1.7460 o         1 HPD     -0.890167
      4 O2P        -0.3890    0.9760    0.9450 o         1 HPD     -0.890167
      5 O3P        -0.4840   -0.9820   -0.6830 o         1 HPD     -0.890167
      6 C5'         2.5510   -0.9980   -0.0190 c1        1 HPD     -0.049000
      7 O4'         4.4090    0.7350   -0.0970 oh        1 HPD     -0.369000
      8 O3'         4.3490   -2.7800    0.8060 oh        1 HPD     -0.348000
      9 O1'         4.5520   -4.3350    3.1900 oh        1 HPD     -0.218000
     10 C3'         4.8850   -1.5360    0.5490 c2        1 HPD      0.094000
     11 C4'         4.0360   -0.6190   -0.2910 c3        1 HPD     -0.108000
     12 H5'1        1.9860   -2.6450    2.4040 ha        1 HPD      0.001500
     13 H5'2        2.4750   -3.0420    2.6720 ha        1 HPD      0.001500
     14 HO'4        3.6380    1.1600    0.3080 ho        1 HPD      0.220000
     15 HO'3        3.3810   -2.7340    0.5980 ho        1 HPD      0.294000
     16 H1'1        6.6780   -1.9600    1.6360 ha        1 HPD      0.103500
     17 H1'2        5.4990   -5.3580    4.5710 ha        1 HPD     -0.024000
     18 HO'1        4.5300   -3.4750    2.7000 ho        1 HPD      0.307000
     19 H3'         3.5250   -5.1400    1.1010 ha        1 HPD      0.001500
     20 H4'         4.2420   -0.8510   -1.3760 h1        1 HPD      0.084000
     21 C2'         6.1110   -1.2550    1.0230 c2        1 HPD     -0.376000
     22 C1'         5.5320   -4.3590    4.0470 c1        1 HPD     -0.081000
     23 H2'1        3.0110   -4.7790    1.3590 ha        1 HPD      0.001500
     24 H2'2        6.5680   -0.2830    0.8220 ha        1 HPD      0.103500
@<TRIPOS>BOND
     1    1    2 1   
     2    1    3 1   
     3    1    4 1   
     4    1    5 1   
     5    2    6 1   
     6    6   11 1   
     7    7   11 1   
     8    7   14 1   
     9    8   10 1   
    10    8   15 1   
    11    9   18 1   
    12    9   22 1   
    13   10   11 1   
    14   10   21 1   
    15   11   20 1   
    16   12   13 1   
    17   16   21 1   
    18   17   22 1   
    19   19   23 1   
    20   21   24 1   
@<TRIPOS>SUBSTRUCTURE
     1 HPD         1 TEMP              0 ****  ****    0 ROOT
