@<TRIPOS>MOLECULE
molecule
   30    30     1     0     0
SMALL
bcc


@<TRIPOS>ATOM
      1 C1           0.0000     0.0000     0.0000 ca         1 HPF      -0.136000
      2 C2           1.3820     0.0000     0.0000 ca         1 HPF      -0.200000
      3 C3           2.0780     0.0000     1.1950 ca         1 HPF      -0.094000
      4 C4           1.3930     0.0010     2.3970 ca         1 HPF      -0.200000
      5 C5           0.0070     0.0010     2.4040 ca         1 HPF       0.220600
      6 C6          -0.6940    -0.0050     1.2000 ca         1 HPF       0.008100
      7 O7          -2.0540    -0.0050     1.2010 oh         1 HPF      -0.514100
      8 N8          -0.6880     0.0010     3.6200 nu         1 HPF      -0.799600
      9 C9           0.0490     0.0010     4.8850 c3         1 HPF       0.417300
     10 C10         -0.7150     0.8300     5.9200 c3         1 HPF       0.132100
     11 C11          0.1140     0.9340     7.2020 c3         1 HPF       0.148400
     12 O12         -0.6470     1.6060     8.2080 os         1 HPF      -0.538200
     13 P13          0.2810     1.6800     9.5210 p5         1 HPF       1.153900
     14 O14         -0.4650     2.5430    10.6580 o          1 HPF      -0.909500
     15 O15          0.5530     0.1920    10.0710 o          1 HPF      -0.909500
     16 O16          1.5690     2.3230     9.1800 o          1 HPF      -0.909500
     17 O17          0.1880    -1.3410     5.3560 oh         1 HPF      -0.605800
     18 O18         -0.9550     2.1380     5.4000 oh         1 HPF      -0.608800
     19 H1          -0.5410    -0.0020    -0.9380 ha         1 HPF       0.114000
     20 H2           1.9220     0.0020    -0.9390 ha         1 HPF       0.110000
     21 H3           3.1610    -0.0000     1.1900 ha         1 HPF       0.119000
     22 H4           1.9400     0.0030     3.3320 ha         1 HPF       0.148000
     23 HO7         -2.3690    -0.7800     0.7670 ho         1 HPF       0.398000
     24 HN8         -1.6890    -0.0350     3.6240 hn         1 HPF       0.446800
     25 H9           1.0310     0.4330     4.7310 h2         1 HPF       0.060700
     26 H10         -1.6610     0.3500     6.1400 h1         1 HPF       0.038700
     27 H111         1.0210     1.4920     7.0020 h1         1 HPF       0.052700
     28 H112         0.3710    -0.0600     7.5480 h1         1 HPF       0.052700
     29 H17          1.0870    -1.6110     5.2740 ho         1 HPF       0.399000
     30 H18         -1.8370     2.4020     5.6060 ho         1 HPF       0.403000
@<TRIPOS>BOND
     1     1     2 ar
     2     1     6 ar
     3     1    19 1
     4     2     3 ar
     5     2    20 1
     6     3     4 ar
     7     3    21 1
     8     4     5 ar
     9     4    22 1
    10     5     6 ar
    11     5     8 1
    12     6     7 1
    13     7    23 1
    14     8     9 1
    15     8    24 1
    16     9    10 1
    17     9    17 1
    18     9    25 1
    19    10    11 1
    20    10    18 1
    21    10    26 1
    22    11    12 1
    23    11    27 1
    24    11    28 1
    25    12    13 1
    26    13    14 1
    27    13    15 1
    28    13    16 1
    29    17    29 1
    30    18    30 1
@<TRIPOS>SUBSTRUCTURE
     1 HPF         1 TEMP              0 ****  ****    0 ROOT
