@<TRIPOS>MOLECULE
HPG
   13    12     1     0     0
SMALL
bcc


@<TRIPOS>ATOM
      1 O1          0.0160   -0.0070    0.0380 oh        1 HPG     -0.597800
      2 C1          1.4350   -0.0010    0.0110 c3        1 HPG      0.132400
      3 C2          1.9050    0.0080    1.4540 c3        1 HPG     -0.088400
      4 C3          3.4220    0.0160    1.5030 c3        1 HPG      0.132400
      5 O3          3.7910    0.0230    2.8730 oh        1 HPG     -0.597800
      6 H11         1.8030    0.9120   -0.5320 h1        1 HPG      0.019700
      7 H12         1.8110   -0.9140   -0.5240 h1        1 HPG      0.019700
      8 H21         1.5100   -0.8930    1.9900 hc        1 HPG      0.070700
      9 H22         1.5010    0.9090    1.9820 hc        1 HPG      0.070700
     10 H31         3.8400   -0.8970    0.9990 h1        1 HPG      0.019700
     11 H32         3.8310    0.9290    0.9920 h1        1 HPG      0.019700
     12 HO3         4.7540    0.0290    2.8980 ho        1 HPG      0.400000
     13 HO1        -0.2760   -0.0120   -0.8800 ho        1 HPG      0.400000
@<TRIPOS>BOND
     1    1    2 1   
     2    1   13 1   
     3    2    3 1   
     4    2    6 1   
     5    2    7 1   
     6    3    4 1   
     7    3    8 1   
     8    3    9 1   
     9    4    5 1   
    10    4   10 1   
    11    4   11 1   
    12    5   12 1   
@<TRIPOS>SUBSTRUCTURE
     1 HPG         1 TEMP              0 ****  ****    0 ROOT
