@<TRIPOS>MOLECULE
molecule
   13    12     1     0     0
SMALL
bcc


@<TRIPOS>ATOM
      1 O1           0.0000     0.0000     0.0000 oh         1 HPG      -0.606300
      2 C1           1.4210     0.0000     0.0000 c3         1 HPG       0.146400
      3 C2           1.9130     0.0000     1.4380 c3         1 HPG      -0.087400
      4 C3           3.4310     0.0150     1.5210 c3         1 HPG       0.146400
      5 O3           3.8390     0.0340     2.8820 oh         1 HPG      -0.606300
      6 H11          1.7840    -0.8850    -0.5080 h1         1 HPG       0.017200
      7 H12          1.7840     0.8850    -0.5080 h1         1 HPG       0.017200
      8 H21          1.5240     0.8760     1.9430 hc         1 HPG       0.066200
      9 H22          1.5420    -0.8870     1.9370 hc         1 HPG       0.066200
     10 H31          3.8270    -0.8710     1.0390 h1         1 HPG       0.017200
     11 H32          3.8100     0.8970     1.0190 h1         1 HPG       0.017200
     12 HO3          4.7810     0.0410     2.9280 ho         1 HPG       0.404000
     13 HO1         -0.3140    -0.0020    -0.8890 ho         1 HPG       0.404000
@<TRIPOS>BOND
     1     1     2 1
     2     2     3 1
     3     2     6 1
     4     2     7 1
     5     3     4 1
     6     3     8 1
     7     3     9 1
     8     4     5 1
     9     4    10 1
    10     4    11 1
    11     5    12 1
    12    13     1 1
@<TRIPOS>SUBSTRUCTURE
     1 HPG         1 TEMP              0 ****  ****    0 ROOT
