@<TRIPOS>MOLECULE
molecule
   58    59     1     0     0
SMALL
bcc


@<TRIPOS>ATOM
      1 C01          0.0000     0.0000     0.0000 ca         1 HPI      -0.123000
      2 C02          1.3820     0.0000     0.0000 ca         1 HPI      -0.116000
      3 C03          2.0740     0.0000     1.1970 ca         1 HPI      -0.106500
      4 C04          1.3830     0.0000     2.3950 ca         1 HPI      -0.076300
      5 C05          0.0000    -0.0050     2.3940 ca         1 HPI      -0.106500
      6 C06         -0.6920    -0.0010     1.1980 ca         1 HPI      -0.116000
      7 C07          2.1360    -0.0000     3.6990 c3         1 HPI      -0.035100
      8 C08          2.2720     1.4370     4.2090 c3         1 HPI       0.102500
      9 N09          3.0700     2.2210     3.2560 n7         1 HPI      -0.797200
     10 C10          2.7210     3.6310     3.4750 c3         1 HPI       0.040500
     11 C11          3.8600     4.5220     2.9740 c3         1 HPI      -0.039400
     12 C12          5.1090     4.2770     3.8220 c3         1 HPI      -0.043100
     13 C13          6.2310     5.1540     3.3290 ca         1 HPI      -0.054300
     14 C14          6.4030     6.4200     3.8570 ca         1 HPI      -0.129500
     15 C15          7.4320     7.2250     3.4050 ca         1 HPI      -0.135500
     16 C16          8.2890     6.7630     2.4240 ca         1 HPI      -0.155000
     17 C17          8.1190     5.4960     1.8960 ca         1 HPI      -0.135500
     18 C18          7.0920     4.6900     2.3520 ca         1 HPI      -0.129500
     19 C19          1.4580     3.9600     2.7220 c          1 HPI       0.860600
     20 O20          0.6670     4.9600     3.1410 o          1 HPI      -0.839800
     21 O21          1.1560     3.3220     1.7410 o          1 HPI      -0.839800
     22 C22          2.9580     1.4300     5.5520 c          1 HPI       0.681100
     23 O23          4.0070     2.0200     5.7000 o          1 HPI      -0.604100
     24 N24          2.4050     0.7680     6.5870 ns         1 HPI      -0.539900
     25 C25          3.0710     0.7610     7.8920 c3         1 HPI       0.068700
     26 C26          4.1020    -0.3390     7.9250 c          1 HPI       0.446100
     27 O27          4.2620    -1.0480     6.9540 o          1 HPI      -0.433100
     28 N28          4.8430    -0.5350     9.0330 nz         1 HPI      -0.681400
     29 C29          2.0360     0.5230     8.9930 c3         1 HPI      -0.215400
     30 C30          1.0780     1.6860     9.0400 c          1 HPI       0.881600
     31 O31          0.0780     1.6940     9.9350 o          1 HPI      -0.793300
     32 O32          1.2100     2.6090     8.2720 o          1 HPI      -0.793300
     33 H01         -0.5420     0.0020    -0.9380 ha         1 HPI       0.114000
     34 H02          1.9240     0.0000    -0.9380 ha         1 HPI       0.117500
     35 H03          3.1570     0.0020     1.1970 ha         1 HPI       0.124500
     36 H05         -0.5410    -0.0060     3.3320 ha         1 HPI       0.124500
     37 H06         -1.7750    -0.0030     1.1980 ha         1 HPI       0.117500
     38 H071         1.5960    -0.5930     4.4280 hc         1 HPI       0.037700
     39 H072         3.1210    -0.4240     3.5470 hc         1 HPI       0.037700
     40 H08          1.2880     1.8800     4.3080 h1         1 HPI       0.094700
     41 H09          2.8260     1.9580     2.3220 hn         1 HPI       0.385800
     42 H10          2.5660     3.8040     4.5330 h1         1 HPI       0.070700
     43 H111         4.0740     4.2870     1.9390 hc         1 HPI       0.046700
     44 H112         3.5670     5.5620     3.0550 hc         1 HPI       0.046700
     45 H121         4.8950     4.5120     4.8580 hc         1 HPI       0.058700
     46 H122         5.4020     3.2370     3.7420 hc         1 HPI       0.058700
     47 H14          5.7310     6.7820     4.6260 ha         1 HPI       0.133500
     48 H15          7.5650     8.2170     3.8180 ha         1 HPI       0.114000
     49 H16          9.0950     7.3940     2.0680 ha         1 HPI       0.111000
     50 H17          8.7920     5.1340     1.1290 ha         1 HPI       0.114000
     51 H18          6.9580     3.6980     1.9390 ha         1 HPI       0.133500
     52 H24          1.5260     0.3050     6.4720 hn         1 HPI       0.339500
     53 H25          3.5570     1.7150     8.0540 h1         1 HPI       0.134700
     54 H281         4.3650    -1.1650     9.6470 hn         1 HPI       0.460800
     55 H282         4.9850     0.3400     9.4970 hn         1 HPI       0.460800
     56 H291         1.4880    -0.3870     8.7830 hc         1 HPI       0.029700
     57 H292         2.5390     0.4310     9.9480 hc         1 HPI       0.029700
     58 H283         5.7280    -0.9260     8.7780 hn         1 HPI       0.460800
@<TRIPOS>BOND
     1     1     2 ar
     2     1     6 ar
     3     1    33 1
     4     2     3 ar
     5     2    34 1
     6     3     4 ar
     7     3    35 1
     8     4     5 ar
     9     4     7 1
    10     5     6 ar
    11     5    36 1
    12     6    37 1
    13     7     8 1
    14     7    38 1
    15     7    39 1
    16     8     9 1
    17     8    22 1
    18     8    40 1
    19     9    10 1
    20     9    41 1
    21    10    11 1
    22    10    19 1
    23    10    42 1
    24    11    12 1
    25    11    43 1
    26    11    44 1
    27    12    13 1
    28    12    45 1
    29    12    46 1
    30    13    14 ar
    31    13    18 ar
    32    14    15 ar
    33    14    47 1
    34    15    16 ar
    35    15    48 1
    36    16    17 ar
    37    16    49 1
    38    17    18 ar
    39    17    50 1
    40    18    51 1
    41    19    20 1
    42    19    21 1
    43    22    23 2
    44    22    24 1
    45    24    25 1
    46    24    52 1
    47    25    26 1
    48    25    29 1
    49    25    53 1
    50    26    27 2
    51    26    28 1
    52    28    54 1
    53    28    55 1
    54    29    30 1
    55    29    56 1
    56    29    57 1
    57    30    31 1
    58    30    32 1
    59    58    28 1
@<TRIPOS>SUBSTRUCTURE
     1 HPI         1 TEMP              0 ****  ****    0 ROOT
