@<TRIPOS>MOLECULE
molecule
   49    52     1     0     0
SMALL
bcc


@<TRIPOS>ATOM
      1 C4           0.0000     0.0000     0.0000 c3         1 HPJ      -0.105400
      2 C14          2.7110     2.9670    -4.1170 ca         1 HPJ      -0.250100
      3 C5           1.5300     0.0000     0.0000 c3         1 HPJ       0.051300
      4 C11          2.1880     1.1200    -2.1570 ca         1 HPJ       0.481800
      5 C7           2.3730    -1.1200    -2.0880 cc         1 HPJ      -0.089100
      6 C8           2.7760    -0.7740    -3.3200 cd         1 HPJ      -0.186200
      7 C9           2.6710     0.6850    -3.4070 ca         1 HPJ      -0.228100
      8 C10          2.9380     1.6190    -4.4060 ca         1 HPJ       0.004000
      9 C13          2.2290     3.3210    -2.8510 ca         1 HPJ       0.474200
     10 C3          -0.5090     0.0000     1.4420 c3         1 HPJ       0.140400
     11 C1          -2.5190     0.0010     2.7490 c3         1 HPJ       0.130700
     12 O2          -1.9380     0.0000     1.4440 os         1 HPJ      -0.427600
     13 N6           2.0180    -0.0020    -1.3810 na         1 HPJ      -0.168100
     14 N12          1.9880     2.4130    -1.9330 nb         1 HPJ      -0.714000
     15 C15          2.9800     4.0060    -5.1330 cc         1 HPJ       0.147400
     16 C16          2.0480     4.9740    -5.3730 cd         1 HPJ      -0.230000
     17 N17          4.1630     3.9920    -5.8190 n          1 HPJ      -0.190500
     18 O18          5.1140     2.9790    -5.5460 oh         1 HPJ      -0.372100
     19 C20          4.4370     4.9250    -6.7500 c          1 HPJ       0.682700
     20 O21          5.5010     4.8900    -7.3490 o          1 HPJ      -0.651500
     21 C22          3.5090     5.9320    -7.0330 cc         1 HPJ      -0.262200
     22 C23          2.3040     5.9630    -6.3410 cd         1 HPJ       0.062800
     23 C24          1.3030     7.0200    -6.6210 ca         1 HPJ      -0.068800
     24 C25          0.6840     7.0840    -7.8690 ca         1 HPJ      -0.108000
     25 C26         -0.2480     8.0700    -8.1230 ca         1 HPJ      -0.128500
     26 C27         -0.5680     8.9930    -7.1450 ca         1 HPJ      -0.120000
     27 C28          0.0440     8.9340    -5.9050 ca         1 HPJ      -0.128500
     28 C29          0.9730     7.9490    -5.6350 ca         1 HPJ      -0.108000
     29 H1          -0.3610    -0.8850    -0.5100 hc         1 HPJ       0.068700
     30 H2          -0.3610     0.8850    -0.5100 hc         1 HPJ       0.068700
     31 H3           1.8910    -0.8840     0.5120 h1         1 HPJ       0.064200
     32 H4           1.8910     0.8850     0.5100 h1         1 HPJ       0.064200
     33 H5           2.3340    -2.1330    -1.7090 h4         1 HPJ       0.172000
     34 H6           3.1140    -1.4450    -4.1010 ha         1 HPJ       0.161000
     35 H7           3.3100     1.3100    -5.3750 ha         1 HPJ       0.158000
     36 H8           2.0520     4.3650    -2.6240 h4         1 HPJ       0.029100
     37 H9          -0.1470     0.8840     1.9530 h1         1 HPJ       0.023200
     38 H10         -0.1480    -0.8850     1.9530 h1         1 HPJ       0.023200
     39 H11         -2.1990    -0.8840     3.2860 h1         1 HPJ       0.031033
     40 H12         -3.5990     0.0010     2.6630 h1         1 HPJ       0.031033
     41 H13         -2.1990     0.8850     3.2860 h1         1 HPJ       0.031033
     42 H14          1.1150     4.9800    -4.8220 ha         1 HPJ       0.162000
     43 H15          5.9310     3.3750    -5.2910 ho         1 HPJ       0.425000
     44 H16          3.7280     6.6840    -7.7820 ha         1 HPJ       0.175000
     45 H17          0.9330     6.3610    -8.6370 ha         1 HPJ       0.137000
     46 H18         -0.7300     8.1210    -9.0910 ha         1 HPJ       0.132500
     47 H19         -1.2980     9.7660    -7.3500 ha         1 HPJ       0.131000
     48 H20         -0.2130     9.6580    -5.1410 ha         1 HPJ       0.132500
     49 H21          1.4510     7.9040    -4.6640 ha         1 HPJ       0.137000
@<TRIPOS>BOND
     1    20    19 2
     2    18    17 1
     3    19    17 1
     4    19    21 1
     5    17    15 1
     6    11    12 1
     7    21    22 2
     8    10    12 1
     9    10     1 1
    10    15     2 1
    11    15    16 2
    12    22    16 1
    13    22    23 1
    14     9     2 ar
    15     9    14 ar
    16     1     3 1
    17     2     8 ar
    18    14     4 ar
    19     8     7 ar
    20    28    23 ar
    21    28    27 ar
    22    23    24 ar
    23     4     7 ar
    24     4    13 1
    25     7     6 1
    26    27    26 ar
    27    13     3 1
    28    13     5 1
    29     6     5 2
    30    24    25 ar
    31    26    25 ar
    32     1    29 1
    33     1    30 1
    34     3    31 1
    35     3    32 1
    36     5    33 1
    37     6    34 1
    38     8    35 1
    39     9    36 1
    40    10    37 1
    41    10    38 1
    42    11    39 1
    43    11    40 1
    44    11    41 1
    45    16    42 1
    46    18    43 1
    47    21    44 1
    48    24    45 1
    49    25    46 1
    50    26    47 1
    51    27    48 1
    52    28    49 1
@<TRIPOS>SUBSTRUCTURE
     1 HPJ         1 TEMP              0 ****  ****    0 ROOT
