@<TRIPOS>MOLECULE
HPJ
   49    52     1     0     0
SMALL
bcc


@<TRIPOS>ATOM
      1 C4           0.0000     0.0000     0.0000 c3         1 HPJ      -0.056400
      2 C14          2.7110     2.9670    -4.1170 ca         1 HPJ      -0.237100
      3 C5           1.5300     0.0000     0.0000 c3         1 HPJ      -0.038700
      4 C11          2.1880     1.1200    -2.1570 ca         1 HPJ       0.259800
      5 C7           2.3730    -1.1200    -2.0880 cc         1 HPJ      -0.246100
      6 C8           2.7760    -0.7740    -3.3200 cd         1 HPJ      -0.144200
      7 C9           2.6710     0.6850    -3.4070 ca         1 HPJ      -0.228100
      8 C10          2.9380     1.6190    -4.4060 ca         1 HPJ       0.033000
      9 C13          2.2290     3.3210    -2.8510 ca         1 HPJ       0.439200
     10 C3          -0.5090     0.0000     1.4420 c3         1 HPJ       0.217400
     11 C1          -2.5190     0.0010     2.7490 c3         1 HPJ       0.256700
     12 O2          -1.9380     0.0000     1.4440 os         1 HPJ      -0.415600
     13 N6           2.0180    -0.0020    -1.3810 na         1 HPJ       0.299900
     14 N12          1.9880     2.4130    -1.9330 nb         1 HPJ      -0.580000
     15 C15          2.9800     4.0060    -5.1330 cc         1 HPJ      -0.024600
     16 C16          2.0480     4.9740    -5.3730 cd         1 HPJ      -0.199000
     17 N17          4.1630     3.9920    -5.8190 n          1 HPJ       0.267500
     18 O18          5.1140     2.9790    -5.5460 oh         1 HPJ      -0.461100
     19 C20          4.4370     4.9250    -6.7500 c          1 HPJ       0.568700
     20 O21          5.5010     4.8900    -7.3490 o          1 HPJ      -0.707500
     21 C22          3.5090     5.9320    -7.0330 cc         1 HPJ      -0.244200
     22 C23          2.3040     5.9630    -6.3410 cd         1 HPJ       0.064800
     23 C24          1.3030     7.0200    -6.6210 ca         1 HPJ      -0.063800
     24 C25          0.6840     7.0840    -7.8690 ca         1 HPJ      -0.083000
     25 C26         -0.2480     8.0700    -8.1230 ca         1 HPJ      -0.101500
     26 C27         -0.5680     8.9930    -7.1450 ca         1 HPJ      -0.095000
     27 C28          0.0440     8.9340    -5.9050 ca         1 HPJ      -0.101500
     28 C29          0.9730     7.9490    -5.6350 ca         1 HPJ      -0.083000
     29 H1          -0.3610    -0.8850    -0.5100 hc         1 HPJ       0.035700
     30 H2          -0.3610     0.8850    -0.5100 hc         1 HPJ       0.035700
     31 H3           1.8910    -0.8840     0.5120 h1         1 HPJ       0.036700
     32 H4           1.8910     0.8850     0.5100 h1         1 HPJ       0.036700
     33 H5           2.3340    -2.1330    -1.7090 h4         1 HPJ       0.144000
     34 H6           3.1140    -1.4450    -4.1010 ha         1 HPJ       0.133000
     35 H7           3.3100     1.3100    -5.3750 ha         1 HPJ       0.121000
     36 H8           2.0520     4.3650    -2.6240 h4         1 HPJ      -0.015900
     37 H9          -0.1470     0.8840     1.9530 h1         1 HPJ      -0.009800
     38 H10         -0.1480    -0.8850     1.9530 h1         1 HPJ      -0.009800
     39 H11         -2.1990    -0.8840     3.2860 h1         1 HPJ      -0.012300
     40 H12         -3.5990     0.0010     2.6630 h1         1 HPJ      -0.012300
     41 H13         -2.1990     0.8850     3.2860 h1         1 HPJ      -0.012300
     42 H14          1.1150     4.9800    -4.8220 ha         1 HPJ       0.137000
     43 H15          5.9310     3.3750    -5.2910 ho         1 HPJ       0.424000
     44 H16          3.7280     6.6840    -7.7820 ha         1 HPJ       0.145000
     45 H17          0.9330     6.3610    -8.6370 ha         1 HPJ       0.109000
     46 H18         -0.7300     8.1210    -9.0910 ha         1 HPJ       0.104000
     47 H19         -1.2980     9.7660    -7.3500 ha         1 HPJ       0.103000
     48 H20         -0.2130     9.6580    -5.1410 ha         1 HPJ       0.104000
     49 H21          1.4510     7.9040    -4.6640 ha         1 HPJ       0.109000
@<TRIPOS>BOND
     1     1     3 1   
     2     1    10 1   
     3     1    29 1   
     4     1    30 1   
     5     2     8 ar  
     6     2     9 ar  
     7     2    15 1   
     8     3    13 1   
     9     3    31 1   
    10     3    32 1   
    11     4     7 ar  
    12     4    13 1   
    13     4    14 ar  
    14     5     6 2   
    15     5    13 1   
    16     5    33 1   
    17     6     7 1   
    18     6    34 1   
    19     7     8 ar  
    20     8    35 1   
    21     9    14 ar  
    22     9    36 1   
    23    10    12 1   
    24    10    37 1   
    25    10    38 1   
    26    11    12 1   
    27    11    39 1   
    28    11    40 1   
    29    11    41 1   
    30    15    16 2   
    31    15    17 1   
    32    16    22 1   
    33    16    42 1   
    34    17    18 1   
    35    17    19 1   
    36    18    43 1   
    37    19    20 2   
    38    19    21 1   
    39    21    22 2   
    40    21    44 1   
    41    22    23 1   
    42    23    24 ar  
    43    23    28 ar  
    44    24    25 ar  
    45    24    45 1   
    46    25    26 ar  
    47    25    46 1   
    48    26    27 ar  
    49    26    47 1   
    50    27    28 ar  
    51    27    48 1   
    52    28    49 1   
@<TRIPOS>SUBSTRUCTURE
     1 HPJ         1 TEMP              0 ****  ****    0 ROOT
