@<TRIPOS>MOLECULE
HPK
   25    25     1     0     0
SMALL
bcc


@<TRIPOS>ATOM
      1 CB3        -0.2690    1.3510    0.8580 ca        1 HPK     -0.157500
      2 CB4         0.8070    0.6950    0.2640 ca        1 HPK     -0.117000
      3 CB5         1.3450   -0.4440    0.8640 ca        1 HPK     -0.157500
      4 CB6         0.8050   -0.9220    2.0550 ca        1 HPK     -0.081000
      5 CB1        -0.2780   -0.2660    2.6580 ca        1 HPK     -0.177600
      6 CB2        -0.8160    0.8780    2.0520 ca        1 HPK     -0.081000
      7 CA6        -0.8290   -0.8060    3.9280 c         1 HPK      0.589700
      8 OA4        -0.3520   -1.8270    4.4460 o         1 HPK     -0.575100
      9 CA5        -1.9720   -0.0360    4.5030 c3        1 HPK     -0.177200
     10 CA4        -2.5240   -0.5430    5.7760 c2        1 HPK     -0.127200
     11 CA3        -3.4060    0.1460    6.5080 ce        1 HPK     -0.237200
     12 CA2        -3.9310    1.4950    6.1830 c         1 HPK      0.458300
     13 OA3        -4.0750    2.3270    7.0900 o         1 HPK     -0.579100
     14 CA1        -4.3090    1.7920    4.7210 c         1 HPK      0.857600
     15 OA2        -3.4120    2.2840    3.9760 o         1 HPK     -0.820300
     16 OA1        -5.4760    1.5060    4.3530 o         1 HPK     -0.820300
     17 HB3        -0.6970    2.2490    0.3880 ha        1 HPK      0.127000
     18 HB4         1.2320    1.0730   -0.6770 ha        1 HPK      0.118000
     19 HB5         2.1940   -0.9640    0.3990 ha        1 HPK      0.127000
     20 HB6         1.2200   -1.8210    2.5390 ha        1 HPK      0.173000
     21 HB2        -1.6730    1.4180    2.5060 ha        1 HPK      0.173000
     22 HA51       -2.8060   -0.0090    3.7370 hc        1 HPK      0.122700
     23 HA52       -1.6560    1.0430    4.6310 hc        1 HPK      0.122700
     24 HA4        -2.1720   -1.5390    6.0930 ha        1 HPK      0.122000
     25 HA3        -3.8030   -0.2800    7.4450 ha        1 HPK      0.118000
@<TRIPOS>BOND
     1    1    2 ar  
     2    1    6 ar  
     3    1   17 1   
     4    2    3 ar  
     5    2   18 1   
     6    3    4 ar  
     7    3   19 1   
     8    4    5 ar  
     9    4   20 1   
    10    5    6 ar  
    11    5    7 1   
    12    6   21 1   
    13    7    8 2   
    14    7    9 1   
    15    9   10 1   
    16    9   22 1   
    17    9   23 1   
    18   10   11 2   
    19   10   24 1   
    20   11   12 1   
    21   11   25 1   
    22   12   13 2   
    23   12   14 1   
    24   14   15 1   
    25   14   16 1   
@<TRIPOS>SUBSTRUCTURE
     1 HPK         1 TEMP              0 ****  ****    0 ROOT
