@<TRIPOS>MOLECULE
molecule
   25    25     1     0     0
SMALL
bcc


@<TRIPOS>ATOM
      1 CB3          0.0000     0.0000     0.0000 ca         1 HPK      -0.147500
      2 CB4          1.3830     0.0000     0.0000 ca         1 HPK      -0.113000
      3 CB5          2.0830     0.0000     1.1940 ca         1 HPK      -0.147500
      4 CB6          1.4050    -0.0000     2.3940 ca         1 HPK      -0.082000
      5 CB1          0.0070    -0.0000     2.4030 ca         1 HPK      -0.167600
      6 CB2         -0.6930     0.0010     1.1930 ca         1 HPK      -0.082000
      7 CA6         -0.7240    -0.0010     3.6810 c          1 HPK       0.571700
      8 OA4         -0.1140    -0.0020     4.7280 o          1 HPK      -0.511100
      9 CA5         -2.2320    -0.0010     3.6860 c3         1 HPK      -0.140200
     10 CA4         -2.7290    -0.0020     5.1090 c2         1 HPK      -0.172200
     11 CA3         -3.5760     0.9470     5.5210 ce         1 HPK      -0.199200
     12 CA2         -4.0590     0.9450     6.9030 c          1 HPK       0.436300
     13 OA3         -3.6900     0.0840     7.6750 o          1 HPK      -0.553100
     14 CA1         -5.0070     2.0060     7.3650 c          1 HPK       0.845600
     15 OA2         -5.3780     2.8730     6.5890 o          1 HPK      -0.811800
     16 OA1         -5.4100     2.0050     8.5170 o          1 HPK      -0.811800
     17 HB3         -0.5400     0.0000    -0.9390 ha         1 HPK       0.127000
     18 HB4          1.9220    -0.0000    -0.9400 ha         1 HPK       0.122000
     19 HB5          3.1670    -0.0000     1.1850 ha         1 HPK       0.127000
     20 HB6          1.9550    -0.0010     3.3270 ha         1 HPK       0.146000
     21 HB2         -1.7770     0.0010     1.1910 ha         1 HPK       0.146000
     22 HA51        -2.5950    -0.8840     3.1760 hc         1 HPK       0.063200
     23 HA52        -2.5940     0.8850     3.1780 hc         1 HPK       0.063200
     24 HA4         -2.4000    -0.7720     5.7970 ha         1 HPK       0.150000
     25 HA3         -3.9050     1.7160     4.8330 ha         1 HPK       0.141000
@<TRIPOS>BOND
     1     1     6 ar
     2     1     2 ar
     3     1    17 1
     4     2     3 ar
     5     2    18 1
     6     3     4 ar
     7     3    19 1
     8     4     5 ar
     9     4    20 1
    10     5     7 1
    11     5     6 ar
    12     6    21 1
    13     7     8 2
    14     7     9 1
    15     9    10 1
    16     9    22 1
    17     9    23 1
    18    10    11 2
    19    10    24 1
    20    11    12 1
    21    11    25 1
    22    12    14 1
    23    12    13 2
    24    14    16 1
    25    14    15 1
@<TRIPOS>SUBSTRUCTURE
     1 HPK         1 TEMP              0 ****  ****    0 ROOT
