@<TRIPOS>MOLECULE
molecule
   27    26     1     0     0
SMALL
bcc


@<TRIPOS>ATOM
      1 C1           0.0000     0.0000     0.0000 c3         1 HPL      -0.084400
      2 C2           1.5300     0.0000     0.0000 c3         1 HPL      -0.081400
      3 C3           2.0410     0.0000     1.4400 c3         1 HPL      -0.081400
      4 C4           3.5710    -0.0000     1.4410 c3         1 HPL      -0.078400
      5 C5           4.0820    -0.0000     2.8820 c3         1 HPL      -0.101400
      6 C6          -0.5110     0.0000    -1.4420 c3         1 HPL      -0.092100
      7 C12          5.6110    -0.0000     2.8820 c3         1 HPL       0.106000
      8 N13          6.1000    -0.0000     4.2610 ns         1 HPL      -0.598900
      9 C14          7.4260    -0.0000     4.5080 c          1 HPL       0.654900
     10 O16          8.2130    -0.0000     3.5860 o          1 HPL      -0.612100
     11 H11         -0.3610     0.8840     0.5110 hc         1 HPL       0.039700
     12 H12         -0.3610    -0.8840     0.5110 hc         1 HPL       0.039700
     13 H21          1.8910     0.8840    -0.5110 hc         1 HPL       0.042700
     14 H22          1.8910    -0.8840    -0.5110 hc         1 HPL       0.042700
     15 H31          1.6800     0.8840     1.9510 hc         1 HPL       0.041700
     16 H32          1.6800    -0.8840     1.9510 hc         1 HPL       0.041700
     17 H41          3.9320     0.8840     0.9300 hc         1 HPL       0.045700
     18 H42          3.9320    -0.8840     0.9300 hc         1 HPL       0.045700
     19 H51          3.7210    -0.8840     3.3930 hc         1 HPL       0.044700
     20 H52          3.7210     0.8840     3.3930 hc         1 HPL       0.044700
     21 H61         -0.1510    -0.8850    -1.9530 hc         1 HPL       0.033367
     22 H62         -1.5940     0.0000    -1.4410 hc         1 HPL       0.033367
     23 H63         -0.1510     0.8850    -1.9530 hc         1 HPL       0.033367
     24 H121         5.9720    -0.8840     2.3710 h1         1 HPL       0.053700
     25 H122         5.9720     0.8840     2.3710 h1         1 HPL       0.053700
     26 H13          5.4510     0.0000     5.0220 hn         1 HPL       0.310500
     27 H14          7.7870     0.0360     5.5280 h5         1 HPL       0.021200
@<TRIPOS>BOND
     1     1     2 1
     2     1     6 1
     3     1    11 1
     4     1    12 1
     5     2     3 1
     6     2    13 1
     7     2    14 1
     8     3     4 1
     9     3    15 1
    10     3    16 1
    11     4     5 1
    12     4    17 1
    13     4    18 1
    14     5     7 1
    15     5    19 1
    16     5    20 1
    17     6    21 1
    18     6    22 1
    19     6    23 1
    20     7     8 1
    21     7    24 1
    22     7    25 1
    23     8     9 1
    24     8    26 1
    25     9    10 2
    26     9    27 1
@<TRIPOS>SUBSTRUCTURE
     1 HPL         1 TEMP              0 ****  ****    0 ROOT
