@<TRIPOS>MOLECULE
HPM
   70    74     1     0     0
SMALL
bcc


@<TRIPOS>ATOM
      1 C1           0.0000     0.0000     0.0000 c3         1 HPM       0.133300
      2 C2           1.5300     0.0000     0.0000 c3         1 HPM      -0.023900
      3 C3           2.0340     0.0000     1.4460 c3         1 HPM      -0.027400
      4 C4           1.4240    -1.1960     2.1840 c3         1 HPM      -0.023900
      5 C5          -0.1000    -1.1330     2.0710 c3         1 HPM       0.133300
      6 N6          -0.4960    -1.2110     0.6610 n3         1 HPM      -0.498600
      7 C7          -1.9630    -1.1390     0.6310 c3         1 HPM       0.130800
      8 C8          -2.5500    -2.3780     1.3090 c3         1 HPM       0.173100
      9 C9          -4.0770    -2.3110     1.2610 c3         1 HPM       0.139400
     10 O10         -4.6260    -3.4080     1.9950 os         1 HPM      -0.263900
     11 C11         -5.9780    -3.2960     1.9180 ca         1 HPM       0.152100
     12 C12         -6.7900    -4.2520     2.5440 ca         1 HPM       0.107100
     13 C13         -8.1510    -4.1600     2.4790 ca         1 HPM      -0.181000
     14 C14         -8.7430    -3.1040     1.7770 ca         1 HPM      -0.305600
     15 C15         -7.9290    -2.1370     1.1370 ca         1 HPM       0.454600
     16 C16         -6.5350    -2.2500     1.2150 ca         1 HPM      -0.269300
     17 N17         -8.5210    -1.1340     0.4710 nb         1 HPM      -0.672000
     18 C18         -9.8300    -1.0550     0.4160 ca         1 HPM       0.679900
     19 N19        -10.6300    -1.9340     0.9980 nb         1 HPM      -0.721000
     20 C20        -10.1470    -2.9630     1.6810 ca         1 HPM       0.534200
     21 N21        -10.9940    -3.8720     2.2830 nu         1 HPM      -0.266300
     22 C22        -12.3770    -3.6570     2.2680 ca         1 HPM      -0.290000
     23 C23        -13.2660    -4.7290     2.2720 ca         1 HPM       0.447200
     24 N24        -14.5660    -4.4870     2.2570 nb         1 HPM      -0.615500
     25 C25        -15.0250    -3.2450     2.2390 ca         1 HPM       0.557900
     26 N26        -14.2110    -2.2020     2.2360 nb         1 HPM      -0.615500
     27 C27        -12.8980    -2.3650     2.2550 ca         1 HPM       0.447200
     28 N28        -16.3980    -3.0320     2.2240 ns         1 HPM      -0.099400
     29 C29        -16.8850    -1.7750     2.2060 c          1 HPM       0.568700
     30 C30        -18.3460    -1.5480     2.1910 ca         1 HPM      -0.160600
     31 C31        -18.8530    -0.2480     2.1720 ca         1 HPM      -0.058500
     32 C32        -20.2160    -0.0430     2.1560 ca         1 HPM      -0.110500
     33 C33        -21.0820    -1.1240     2.1610 ca         1 HPM      -0.076000
     34 C34        -20.5860    -2.4150     2.1800 ca         1 HPM      -0.110500
     35 C35        -19.2230    -2.6340     2.1890 ca         1 HPM      -0.058500
     36 O36        -16.1220    -0.8290     2.2030 o          1 HPM      -0.569100
     37 O37         -6.2150    -5.2780     3.2260 os         1 HPM      -0.263900
     38 C38         -7.2810    -6.0720     3.7510 c3         1 HPM       0.213700
     39 O39         -2.1030    -3.5510     0.6260 oh         1 HPM      -0.563800
     40 H1C1        -0.3590     0.8720     0.5330 h1         1 HPM       0.011200
     41 H1C2        -0.3590     0.0240    -1.0220 h1         1 HPM       0.011200
     42 H2C1         1.8910     0.8860    -0.5080 hc         1 HPM       0.020450
     43 H2C2         1.8910    -0.8860    -0.5080 hc         1 HPM       0.020450
     44 H3C1         3.1140    -0.0830     1.4530 hc         1 HPM       0.012700
     45 H3C2         1.7320     0.9190     1.9340 hc         1 HPM       0.012700
     46 H4C1         1.7110    -1.1600     3.2280 hc         1 HPM       0.020450
     47 H4C2         1.7810    -2.1160     1.7370 hc         1 HPM       0.020450
     48 H5C1        -0.5340    -1.9640     2.6130 h1         1 HPM       0.011200
     49 H5C2        -0.4520    -0.1990     2.4920 h1         1 HPM       0.011200
     50 H7C1        -2.3010    -1.0950    -0.3980 h1         1 HPM       0.020200
     51 H7C2        -2.2910    -0.2500     1.1570 h1         1 HPM       0.020200
     52 H8          -2.2220    -2.4150     2.3410 h1         1 HPM       0.015700
     53 H9C1        -4.4080    -2.3640     0.2310 h1         1 HPM       0.026200
     54 H9C2        -4.4110    -1.3790     1.7000 h1         1 HPM       0.026200
     55 H13         -8.7700    -4.9040     2.9660 ha         1 HPM       0.135000
     56 H16         -5.9050    -1.4530     0.8390 ha         1 HPM       0.155000
     57 H18        -10.2750    -0.2320    -0.1310 h5         1 HPM      -0.001900
     58 H21        -10.6200    -4.6910     2.7180 hn         1 HPM       0.286800
     59 H23        -12.8970    -5.7470     2.2860 h4         1 HPM       0.003600
     60 H27        -12.2380    -1.5070     2.2520 h4         1 HPM       0.003600
     61 H28        -17.0260    -3.8110     2.2330 hn         1 HPM       0.182500
     62 H31        -18.1770     0.5990     2.1680 ha         1 HPM       0.114500
     63 H32        -20.6120     0.9650     2.1420 ha         1 HPM       0.106500
     64 H33        -22.1520    -0.9580     2.1510 ha         1 HPM       0.103000
     65 H34        -21.2680    -3.2560     2.1810 ha         1 HPM       0.106500
     66 H35        -18.8360    -3.6460     2.2040 ha         1 HPM       0.114500
     67 H381        -7.8880    -6.4470     2.9360 h1         1 HPM       0.002367
     68 H382        -6.8700    -6.9060     4.3080 h1         1 HPM       0.002367
     69 H383        -7.8940    -5.4660     4.4080 h1         1 HPM       0.002367
     70 H39         -1.8950    -4.2220     1.2550 ho         1 HPM       0.393000
@<TRIPOS>BOND
     1     1     2 1   
     2     1     6 1   
     3     1    40 1   
     4     1    41 1   
     5     2     3 1   
     6     2    42 1   
     7     2    43 1   
     8     3     4 1   
     9     3    44 1   
    10     3    45 1   
    11     4     5 1   
    12     4    46 1   
    13     4    47 1   
    14     5     6 1   
    15     5    48 1   
    16     5    49 1   
    17     6     7 1   
    18     7     8 1   
    19     7    50 1   
    20     7    51 1   
    21     8     9 1   
    22     8    39 1   
    23     8    52 1   
    24     9    10 1   
    25     9    53 1   
    26     9    54 1   
    27    10    11 1   
    28    11    12 ar  
    29    11    16 ar  
    30    12    13 ar  
    31    12    37 1   
    32    13    14 ar  
    33    13    55 1   
    34    14    15 ar  
    35    14    20 ar  
    36    15    16 ar  
    37    15    17 ar  
    38    16    56 1   
    39    17    18 ar  
    40    18    19 ar  
    41    18    57 1   
    42    19    20 ar  
    43    20    21 1   
    44    21    22 1   
    45    21    58 1   
    46    22    23 ar  
    47    22    27 ar  
    48    23    24 ar  
    49    23    59 1   
    50    24    25 ar  
    51    25    26 ar  
    52    25    28 1   
    53    26    27 ar  
    54    27    60 1   
    55    28    29 1   
    56    28    61 1   
    57    29    30 1   
    58    29    36 2   
    59    30    31 ar  
    60    30    35 ar  
    61    31    32 ar  
    62    31    62 1   
    63    32    33 ar  
    64    32    63 1   
    65    33    34 ar  
    66    33    64 1   
    67    34    35 ar  
    68    34    65 1   
    69    35    66 1   
    70    37    38 1   
    71    38    67 1   
    72    38    68 1   
    73    38    69 1   
    74    39    70 1   
@<TRIPOS>SUBSTRUCTURE
     1 HPM         1 TEMP              0 ****  ****    0 ROOT
