@<TRIPOS>MOLECULE
molecule
   25    24     1     0     0
SMALL
bcc


@<TRIPOS>ATOM
      1 N1           0.0000     0.0000     0.0000 nz         1 HPN      -0.687400
      2 C1           1.3480     0.0000     0.0000 c          1 HPN       0.474100
      3 O1           1.9520     0.0000     1.0520 o          1 HPN      -0.388100
      4 C2           2.1030    -0.0000    -1.3020 c3         1 HPN      -0.160400
      5 C3           3.6060     0.0000    -1.0220 c3         1 HPN      -0.074400
      6 C4           4.3720    -0.0000    -2.3450 c3         1 HPN      -0.082400
      7 C5           5.8760     0.0000    -2.0640 c3         1 HPN      -0.079400
      8 C6           6.6430    -0.0000    -3.3880 c3         1 HPN      -0.083400
      9 C7           8.1470     0.0000    -3.1070 c3         1 HPN      -0.091100
     10 HN11        -0.3340     0.0000     0.9440 hn         1 HPN       0.478467
     11 HN12        -0.3340    -0.8170    -0.4720 hn         1 HPN       0.478467
     12 H21          1.8420     0.8840    -1.8710 hc         1 HPN       0.093700
     13 H22          1.8420    -0.8840    -1.8710 hc         1 HPN       0.093700
     14 H31          3.8680    -0.8840    -0.4530 hc         1 HPN       0.070700
     15 H32          3.8680     0.8840    -0.4530 hc         1 HPN       0.070700
     16 H41          4.1110    -0.8840    -2.9140 hc         1 HPN       0.048700
     17 H42          4.1110     0.8840    -2.9140 hc         1 HPN       0.048700
     18 H51          6.1370    -0.8840    -1.4960 hc         1 HPN       0.049700
     19 H52          6.1370     0.8840    -1.4960 hc         1 HPN       0.049700
     20 H61          6.3820    -0.8840    -3.9560 hc         1 HPN       0.043700
     21 H62          6.3820     0.8840    -3.9560 hc         1 HPN       0.043700
     22 H71          8.6890    -0.0000    -4.0450 hc         1 HPN       0.040700
     23 H72          8.4080    -0.8850    -2.5390 hc         1 HPN       0.040700
     24 H73          8.4080     0.8850    -2.5390 hc         1 HPN       0.040700
     25 H13         -0.3340     0.8340    -0.4410 hn         1 HPN       0.478467
@<TRIPOS>BOND
     1     1     2 1
     2     1    10 1
     3     1    11 1
     4     2     3 2
     5     2     4 1
     6     4     5 1
     7     4    12 1
     8     4    13 1
     9     5     6 1
    10     5    14 1
    11     5    15 1
    12     6     7 1
    13     6    16 1
    14     6    17 1
    15     7     8 1
    16     7    18 1
    17     7    19 1
    18     8     9 1
    19     8    20 1
    20     8    21 1
    21     9    22 1
    22     9    23 1
    23     9    24 1
    24    25     1 1
@<TRIPOS>SUBSTRUCTURE
     1 HPN         1 TEMP              0 ****  ****    0 ROOT
