@<TRIPOS>MOLECULE
HPO
   25    23     1     0     0
SMALL
bcc


@<TRIPOS>ATOM
      1 C1         -0.0340    0.7620    0.4440 c3        1 HPO     -0.205000
      2 C2          1.3400    0.1980    0.1860 c3        1 HPO     -0.160000
      3 C3          2.1990    0.2110    1.4340 c3        1 HPO     -0.159000
      4 C4          3.5790   -0.3520    1.1670 c3        1 HPO     -0.141000
      5 C5          4.4370   -0.3440    2.4110 c3        1 HPO     -0.207000
      6 C6          5.8760   -0.7820    2.1390 c2        1 HPO      0.278000
      7 C7          6.6410   -1.0060    3.2850 c2        1 HPO     -0.758000
      8 O1          6.2500   -0.8660    0.9300 o         1 HPO     -0.557000
      9 P1          7.6610    0.5650    4.7630 p3        1 HPO      2.505000
     10 O2          6.8890    1.8040    4.4970 o         1 HPO     -1.187000
     11 O3          7.3070   -0.2080    5.9840 o         1 HPO     -1.187000
     12 O4          9.0630    0.4760    4.2850 o         1 HPO     -1.187000
     13 H11         0.0370    1.8180    0.8000 hc        1 HPO      0.056000
     14 H12        -0.5630    0.1660    1.2260 hc        1 HPO      0.056000
     15 H13        -0.6490    0.7450   -0.4880 hc        1 HPO      0.056000
     16 H21         1.2500   -0.8540   -0.1930 hc        1 HPO      0.070000
     17 H22         1.8470    0.7940   -0.6180 hc        1 HPO      0.070000
     18 H31         1.6960   -0.3870    2.2390 hc        1 HPO      0.068500
     19 H32         2.2920    1.2620    1.8140 hc        1 HPO      0.068500
     20 H41         4.0940    0.2460    0.3690 hc        1 HPO      0.075500
     21 H42         3.4910   -1.4010    0.7790 hc        1 HPO      0.075500
     22 H51         3.9850   -1.0150    3.1850 hc        1 HPO      0.079500
     23 H52         4.4840    0.6900    2.8430 hc        1 HPO      0.079500
     24 H71         6.1280   -1.2200    4.2280 ha        1 HPO      0.104500
     25 H72         7.6600   -1.3860    3.1740 ha        1 HPO      0.104500
@<TRIPOS>BOND
     1    1    2 1   
     2    1   13 1   
     3    1   14 1   
     4    1   15 1   
     5    2    3 1   
     6    2   16 1   
     7    2   17 1   
     8    3    4 1   
     9    3   18 1   
    10    3   19 1   
    11    4    5 1   
    12    4   20 1   
    13    4   21 1   
    14    5    6 1   
    15    5   22 1   
    16    5   23 1   
    17    6    7 1   
    18    6    8 1   
    19    7   24 1   
    20    7   25 1   
    21    9   10 1   
    22    9   11 1   
    23    9   12 1   
@<TRIPOS>SUBSTRUCTURE
     1 HPO         1 TEMP              0 ****  ****    0 ROOT
