@<TRIPOS>MOLECULE
molecule
   25    24     1     0     0
SMALL
bcc


@<TRIPOS>ATOM
      1 C1           0.0000     0.0000     0.0000 c3         1 HPO      -0.093100
      2 C2           1.5300     0.0000     0.0000 c3         1 HPO      -0.084400
      3 C3           2.0410     0.0000     1.4410 c3         1 HPO      -0.085400
      4 C4           3.5710     0.0010     1.4410 c3         1 HPO      -0.071400
      5 C5           4.0810    -0.0000     2.8820 c3         1 HPO      -0.200400
      6 C6           5.5880     0.0020     2.8810 c          1 HPO       0.585100
      7 C7           6.3420     0.0010     4.1860 c3         1 HPO      -0.325600
      8 O1           6.1910     0.0020     1.8360 o          1 HPO      -0.489100
      9 P1           8.1340     0.0020     3.8520 p5         1 HPO       1.049700
     10 O2           8.4900     1.2120     3.0780 o          1 HPO      -0.911167
     11 O3           8.9400     0.0020     5.2450 o          1 HPO      -0.911167
     12 O4           8.5240    -1.3100     3.0060 o          1 HPO      -0.911167
     13 H11         -0.3610     0.8850     0.5100 hc         1 HPO       0.020700
     14 H12         -0.3610    -0.8840     0.5110 hc         1 HPO       0.020700
     15 H13         -0.3610    -0.0000    -1.0210 hc         1 HPO       0.020700
     16 H21          1.8910    -0.8840    -0.5110 hc         1 HPO       0.039700
     17 H22          1.8910     0.8840    -0.5110 hc         1 HPO       0.039700
     18 H31          1.6790     0.8840     1.9520 hc         1 HPO       0.027700
     19 H32          1.6800    -0.8850     1.9520 hc         1 HPO       0.027700
     20 H41          3.9310     0.8860     0.9310 hc         1 HPO       0.052700
     21 H42          3.9320    -0.8830     0.9290 hc         1 HPO       0.052700
     22 H51          3.7220    -0.8860     3.3920 hc         1 HPO       0.035200
     23 H52          3.7200     0.8830     3.3940 hc         1 HPO       0.035200
     24 H71          6.0820    -0.8840     4.7530 hc         1 HPO       0.038200
     25 H72          6.0810     0.8850     4.7550 hc         1 HPO       0.038200
@<TRIPOS>BOND
     1     1     2 1
     2     1    13 1
     3     1    14 1
     4     1    15 1
     5     2     3 1
     6     2    16 1
     7     2    17 1
     8     3     4 1
     9     3    18 1
    10     3    19 1
    11     4     5 1
    12     4    20 1
    13     4    21 1
    14     5     6 1
    15     5    22 1
    16     5    23 1
    17     6     7 1
    18     6     8 2
    19     7     9 1
    20     7    24 1
    21     7    25 1
    22     9    10 1
    23     9    11 1
    24     9    12 1
@<TRIPOS>SUBSTRUCTURE
     1 HPO         1 TEMP              0 ****  ****    0 ROOT
