@<TRIPOS>MOLECULE
molecule
   21    21     1     0     0
SMALL
bcc


@<TRIPOS>ATOM
      1 C1           0.0000     0.0000     0.0000 ca         1 HPP      -0.057300
      2 C2           1.3820     0.0000     0.0000 ca         1 HPP      -0.122000
      3 C3           2.0730     0.0000     1.1970 ca         1 HPP      -0.156000
      4 C4           1.3800     0.0010     2.3980 ca         1 HPP       0.067100
      5 O4           2.0580     0.0000     3.5750 oh         1 HPP      -0.533100
      6 C5          -0.0070     0.0030     2.3940 ca         1 HPP      -0.156000
      7 C6          -0.6940     0.0070     1.1970 ca         1 HPP      -0.122000
      8 C7          -0.7520     0.0010    -1.3050 c3         1 HPP      -0.029100
      9 C8          -1.0080    -1.4410    -1.7460 c3         1 HPP      -0.178400
     10 C9          -1.7600    -1.4410    -3.0520 c          1 HPP       0.890600
     11 O1          -2.0600    -0.3950    -3.5760 o          1 HPP      -0.853800
     12 O2          -2.0960    -2.6040    -3.6330 o          1 HPP      -0.853800
     13 H2           1.9230    -0.0030    -0.9380 ha         1 HPP       0.136000
     14 H3           3.1570     0.0000     1.1960 ha         1 HPP       0.124000
     15 HO4          2.2140    -0.8890     3.8480 ho         1 HPP       0.405000
     16 H5          -0.5510     0.0050     3.3310 ha         1 HPP       0.124000
     17 H6          -1.7770     0.0080     1.1940 ha         1 HPP       0.136000
     18 H71         -0.1640     0.5100    -2.0600 hc         1 HPP       0.056700
     19 H72         -1.6970     0.5130    -1.1770 hc         1 HPP       0.056700
     20 H81         -1.5960    -1.9500    -0.9910 hc         1 HPP       0.031700
     21 H82         -0.0630    -1.9530    -1.8740 hc         1 HPP       0.031700
@<TRIPOS>BOND
     1     1     2 ar
     2     1     7 ar
     3     1     8 1
     4     2     3 ar
     5     2    13 1
     6     3     4 ar
     7     3    14 1
     8     4     5 1
     9     4     6 ar
    10     5    15 1
    11     6     7 ar
    12     6    16 1
    13     7    17 1
    14     8     9 1
    15     8    18 1
    16     8    19 1
    17     9    10 1
    18     9    20 1
    19     9    21 1
    20    10    11 1
    21    10    12 1
@<TRIPOS>SUBSTRUCTURE
     1 HPP         1 TEMP              0 ****  ****    0 ROOT
