@<TRIPOS>MOLECULE
HPP
   21    21     1     0     0
SMALL
bcc


@<TRIPOS>ATOM
      1 C1          0.1020   -0.0180   -0.0770 ca        1 HPP     -0.067300
      2 C2          1.4910    0.1080    0.0400 ca        1 HPP     -0.105500
      3 C3          2.0990    0.1980    1.2900 ca        1 HPP     -0.186000
      4 C4          1.3030    0.1600    2.4410 ca        1 HPP      0.086100
      5 O4          1.8350    0.2490    3.7150 oh        1 HPP     -0.515100
      6 C5         -0.0910    0.0310    2.3480 ca        1 HPP     -0.186000
      7 C6         -0.6760   -0.0570    1.0900 ca        1 HPP     -0.105500
      8 C7         -0.5490   -0.1030   -1.4120 c3        1 HPP     -0.037100
      9 C8         -1.1170   -1.4750   -1.7020 c3        1 HPP     -0.192400
     10 C9         -2.0390   -1.4380   -2.9360 c         1 HPP      0.907600
     11 O1         -2.8400   -0.4670   -3.0600 o         1 HPP     -0.848800
     12 O2         -1.9580   -2.3960   -3.7560 o         1 HPP     -0.848800
     13 H2          2.1120    0.1340   -0.8680 ha        1 HPP      0.138500
     14 H3          3.1890    0.2950    1.3740 ha        1 HPP      0.125500
     15 HO4         2.7960    0.3030    3.6220 ho        1 HPP      0.405000
     16 H5         -0.6970    0.0010    3.2630 ha        1 HPP      0.125500
     17 H6         -1.7690   -0.1630    0.9970 ha        1 HPP      0.138500
     18 H71         0.1860    0.1680   -2.2160 hc        1 HPP      0.058200
     19 H72        -1.3930    0.6410   -1.4700 hc        1 HPP      0.058200
     20 H81        -0.2950   -2.2120   -1.8730 hc        1 HPP      0.024700
     21 H82        -1.7260   -1.8290   -0.8320 hc        1 HPP      0.024700
@<TRIPOS>BOND
     1    1    2 ar  
     2    1    7 ar  
     3    1    8 1   
     4    2    3 ar  
     5    2   13 1   
     6    3    4 ar  
     7    3   14 1   
     8    4    5 1   
     9    4    6 ar  
    10    5   15 1   
    11    6    7 ar  
    12    6   16 1   
    13    7   17 1   
    14    8    9 1   
    15    8   18 1   
    16    8   19 1   
    17    9   10 1   
    18    9   20 1   
    19    9   21 1   
    20   10   11 1   
    21   10   12 1   
@<TRIPOS>SUBSTRUCTURE
     1 HPP         1 TEMP              0 ****  ****    0 ROOT
