@<TRIPOS>MOLECULE
HPR
   33    35     1     0     0
SMALL
bcc


@<TRIPOS>ATOM
      1 N1           0.0000     0.0000     0.0000 nb         1 HPR      -0.696000
      2 C2           1.3180     0.0000     0.0000 ca         1 HPR       0.658900
      3 N3           2.0180     0.0000     1.1160 nb         1 HPR      -0.641000
      4 C4           1.4130    -0.0020     2.3010 ca         1 HPR       0.490200
      5 C5           0.0180    -0.0040     2.3430 ca         1 HPR      -0.298000
      6 C6          -0.6820    -0.0020     1.1400 ca         1 HPR       0.659600
      7 O6          -2.0390    -0.0030     1.1330 oh         1 HPR      -0.597300
      8 N7          -0.4040    -0.0060     3.6850 nu         1 HPR      -0.370600
      9 C8           0.7870    -0.4230     4.4610 c3         1 HPR       0.298000
     10 N9           1.9150    -0.0020     3.5990 nh         1 HPR      -0.449300
     11 C1'          2.9180    -1.0710     3.6650 c3         1 HPR       0.317300
     12 C2'          4.1400    -0.7010     2.8030 c3         1 HPR       0.133100
     13 O2'          4.3360    -1.6690     1.7710 oh         1 HPR      -0.559800
     14 C3'          5.3290    -0.7200     3.7970 c3         1 HPR       0.125100
     15 O3'          6.4820    -1.3190     3.2010 oh         1 HPR      -0.559800
     16 C4'          4.7740    -1.5970     4.9460 c3         1 HPR       0.166100
     17 O4'          3.3820    -1.2240     5.0170 os         1 HPR      -0.385600
     18 C5'          5.4860    -1.2760     6.2620 c3         1 HPR       0.223400
     19 O5'          4.9210    -2.0610     7.3130 oh         1 HPR      -0.581800
     20 H2           1.8420     0.0020    -0.9480 h5         1 HPR       0.001100
     21 HO6         -2.3500     0.5330     0.4220 ho         1 HPR       0.423000
     22 HN7         -1.1330    -0.6820     3.8040 hn         1 HPR       0.265800
     23 H81          0.7930    -1.5000     4.5780 h2         1 HPR       0.036200
     24 H82          0.8200     0.1130     5.4020 h2         1 HPR       0.036200
     25 H1'          2.4920    -2.0040     3.3160 h2         1 HPR       0.034700
     26 H2'          4.0180     0.2890     2.3820 h1         1 HPR       0.043700
     27 HO2'         4.8020    -1.2740     1.0530 ho         1 HPR       0.398000
     28 H3'          5.5460     0.2810     4.1500 h1         1 HPR       0.019700
     29 HO3'         7.1360    -0.6580     3.0470 ho         1 HPR       0.386000
     30 H4'          4.8720    -2.6480     4.7010 h1         1 HPR       0.047700
     31 H5'1         6.5410    -1.5050     6.1670 h1         1 HPR      -0.007300
     32 H5'2         5.3640    -0.2240     6.4910 h1         1 HPR      -0.007300
     33 HO5'         5.4030    -1.9130     8.1100 ho         1 HPR       0.388000
@<TRIPOS>BOND
     1     1     2 ar  
     2     1     6 ar  
     3     2     3 ar  
     4     2    20 1   
     5     3     4 ar  
     6     4     5 ar  
     7     4    10 1   
     8     5     6 ar  
     9     5     8 1   
    10     6     7 1   
    11     7    21 1   
    12     8     9 1   
    13     8    22 1   
    14     9    10 1   
    15     9    23 1   
    16     9    24 1   
    17    10    11 1   
    18    11    12 1   
    19    11    17 1   
    20    11    25 1   
    21    12    13 1   
    22    12    14 1   
    23    12    26 1   
    24    13    27 1   
    25    14    15 1   
    26    14    16 1   
    27    14    28 1   
    28    15    29 1   
    29    16    17 1   
    30    16    18 1   
    31    16    30 1   
    32    18    19 1   
    33    18    31 1   
    34    18    32 1   
    35    19    33 1   
@<TRIPOS>SUBSTRUCTURE
     1 HPR         1 TEMP              0 ****  ****    0 ROOT
