@<TRIPOS>MOLECULE
molecule
   16    16     1     0     0
SMALL
bcc


@<TRIPOS>ATOM
      1 C1           0.0000     0.0000     0.0000 ca         1 HPS      -0.142500
      2 C2           1.3830     0.0000     0.0000 ca         1 HPS      -0.207000
      3 C3           2.0750     0.0000     1.1960 ca         1 HPS      -0.142500
      4 C4           1.3880     0.0020     2.3940 ca         1 HPS      -0.133000
      5 C5           0.0010     0.0010     2.3960 ca         1 HPS       0.213100
      6 C6          -0.6920    -0.0040     1.1950 ca         1 HPS      -0.133000
      7 O12         -0.6770     0.0020     3.5740 os         1 HPS      -0.435500
      8 P13         -0.9100     1.5420     3.9760 p5         1 HPS       1.118900
      9 O14         -1.7130     1.6200     5.3690 o          1 HPS      -0.888500
     10 O15         -1.7630     2.2750     2.8250 o          1 HPS      -0.888500
     11 O16          0.4000     2.2160     4.1240 o          1 HPS      -0.888500
     12 H1          -0.5410    -0.0000    -0.9380 ha         1 HPS       0.085500
     13 H2           1.9250     0.0000    -0.9380 ha         1 HPS       0.076000
     14 H3           3.1590    -0.0030     1.1940 ha         1 HPS       0.085500
     15 H4           1.9320    -0.0540     3.3290 ha         1 HPS       0.139500
     16 H6          -1.7730    -0.0620     1.1950 ha         1 HPS       0.139500
@<TRIPOS>BOND
     1     1     2 ar
     2     1     6 ar
     3     1    12 1
     4     2     3 ar
     5     2    13 1
     6     3     4 ar
     7     3    14 1
     8     4     5 ar
     9     4    15 1
    10     5     6 ar
    11     5     7 1
    12     6    16 1
    13     7     8 1
    14     8     9 1
    15     8    10 1
    16     8    11 1
@<TRIPOS>SUBSTRUCTURE
     1 HPS         1 TEMP              0 ****  ****    0 ROOT
