@<TRIPOS>MOLECULE
HPT
   25    25     1     0     0
SMALL
bcc


@<TRIPOS>ATOM
      1 O2           0.0000     0.0000     0.0000 o          1 HPT      -0.658500
      2 C3           2.2860     0.0000     0.0000 cc         1 HPT      -0.275400
      3 C4           2.3660     0.0070    -1.5050 c3         1 HPT       0.083100
      4 C5           3.4110     0.0000     0.7450 cd         1 HPT      -0.098600
      5 C1           2.1200    -0.0120     2.7160 c          1 HPT       0.572500
      6 N1           3.3210    -0.0060     2.1100 ns         1 HPT       0.024900
      7 C2           1.0290    -0.0000     0.6510 c          1 HPT       0.621700
      8 N2           0.9820    -0.0110     1.9970 ns         1 HPT      -0.122500
      9 O3           7.0100     2.8040    -1.0290 oh         1 HPT      -0.590800
     10 C11          4.7620     0.0060     0.0770 c3         1 HPT       0.020800
     11 C12          5.2160     1.4490    -0.1440 c3         1 HPT      -0.039400
     12 C13          6.5860     1.4560    -0.8230 c3         1 HPT       0.229400
     13 H43          1.3740    -0.1230    -1.9200 hc         1 HPT       0.016700
     14 H42          2.7770     0.9510    -1.8400 hc         1 HPT       0.016700
     15 H41          3.0050    -0.8030    -1.8360 hc         1 HPT       0.016700
     16 H1           4.1550    -0.0070     2.6620 hn         1 HPT       0.190500
     17 H2           0.0970    -0.0150     2.4650 hn         1 HPT       0.207500
     18 H3           7.8550     2.8070    -1.4480 ho         1 HPT       0.394000
     19 H112         4.6940    -0.5020    -0.8780 hc         1 HPT       0.032200
     20 H111         5.4790    -0.5060     0.7070 hc         1 HPT       0.032200
     21 H122         4.4980     1.9610    -0.7740 hc         1 HPT       0.031200
     22 H121         5.2840     1.9560     0.8110 hc         1 HPT       0.031200
     23 H132         6.5180     0.9490    -1.7780 h1         1 HPT      -0.015800
     24 H131         7.3030     0.9440    -0.1930 h1         1 HPT      -0.015800
     25 O1           2.0620    -0.0170     3.9310 o          1 HPT      -0.704500
@<TRIPOS>BOND
     1     1     7 2   
     2     2     3 1   
     3     2     4 2   
     4     2     7 1   
     5     3    13 1   
     6     3    14 1   
     7     3    15 1   
     8     4     6 1   
     9     4    10 1   
    10     5     6 1   
    11     5     8 1   
    12     5    25 2   
    13     6    16 1   
    14     7     8 1   
    15     8    17 1   
    16     9    12 1   
    17     9    18 1   
    18    10    11 1   
    19    10    19 1   
    20    10    20 1   
    21    11    12 1   
    22    11    21 1   
    23    11    22 1   
    24    12    23 1   
    25    12    24 1   
@<TRIPOS>SUBSTRUCTURE
     1 HPT         1 TEMP              0 ****  ****    0 ROOT
