@<TRIPOS>MOLECULE
molecule
   41    43     1     0     0
SMALL
bcc


@<TRIPOS>ATOM
      1 C14          0.0000     0.0000     0.0000 cc         1 HPU      -0.221000
      2 C11          1.7300     0.8860    -2.2980 ca         1 HPU      -0.097000
      3 C7           3.8370    -0.8810    -2.6920 ca         1 HPU       0.110600
      4 C8           3.1540    -0.8870    -1.4860 ca         1 HPU      -0.067000
      5 C9           3.4650     0.0060    -3.6970 ca         1 HPU      -0.120000
      6 C10          2.4160     0.8840    -3.4960 ca         1 HPU      -0.133000
      7 C12          2.0960    -0.0010    -1.2830 ca         1 HPU      -0.075800
      8 C13          1.3640     0.0000     0.0000 cd         1 HPU       0.134400
      9 C1           3.6760    -3.3850    -4.7500 c3         1 HPU      -0.244300
     10 S2           4.5940    -3.3690    -3.1850 s6         1 HPU       1.323900
     11 O3           3.7520    -3.7640    -2.1100 o          1 HPU      -0.622300
     12 O4           5.8820    -3.9450    -3.3560 o          1 HPU      -0.622300
     13 N15          2.0610     0.0000     1.1770 n          1 HPU      -0.189500
     14 O16          3.4770     0.0010     1.1490 oh         1 HPU      -0.369100
     15 C18          1.4230     0.0010     2.3620 c          1 HPU       0.682700
     16 O19          2.0670     0.0030     3.3990 o          1 HPU      -0.645500
     17 C20          0.0230     0.0020     2.4100 cd         1 HPU      -0.253200
     18 C21         -0.6980     0.0060     1.2230 cc         1 HPU       0.059800
     19 C22         -2.1800     0.0070     1.2440 ca         1 HPU      -0.069800
     20 C23         -2.8730     1.1020     1.7580 ca         1 HPU      -0.108000
     21 C24         -4.2530     1.0980     1.7730 ca         1 HPU      -0.129000
     22 C25         -4.9490     0.0080     1.2820 ca         1 HPU      -0.120000
     23 C26         -4.2670    -1.0820     0.7710 ca         1 HPU      -0.129000
     24 C27         -2.8870    -1.0860     0.7440 ca         1 HPU      -0.108000
     25 H1          -0.5440     0.0030    -0.9370 ha         1 HPU       0.161000
     26 H2           0.9090     1.5760    -2.1450 ha         1 HPU       0.141000
     27 H3           3.4420    -1.5770    -0.7030 ha         1 HPU       0.178000
     28 H4           3.9990     0.0100    -4.6390 ha         1 HPU       0.137000
     29 H5           2.1320     1.5730    -4.2830 ha         1 HPU       0.139000
     30 H6           4.1460    -2.7070    -5.4510 h1         1 HPU       0.098367
     31 H7           3.6800    -4.3880    -5.1600 h1         1 HPU       0.098367
     32 H8           2.6550    -3.0720    -4.5730 h1         1 HPU       0.098367
     33 H9           5.8410    -1.4390    -2.8420 hn         1 HPU       0.468800
     34 H10          3.8010     0.7470     1.6250 ho         1 HPU       0.425000
     35 H11         -0.4920     0.0050     3.3630 ha         1 HPU       0.176000
     36 H12         -2.3300     1.9570     2.1430 ha         1 HPU       0.138000
     37 H13         -4.7920     1.9480     2.1720 ha         1 HPU       0.133500
     38 H14         -6.0330     0.0070     1.2980 ha         1 HPU       0.132000
     39 H15         -4.8170    -1.9320     0.3850 ha         1 HPU       0.133500
     40 H16         -2.3550    -1.9410     0.3440 ha         1 HPU       0.138000
     41 N5           4.8970    -1.7670    -2.9000 nu         1 HPU      -0.782500
@<TRIPOS>BOND
     1    22    23 ar
     2    22    21 ar
     3    23    24 ar
     4    21    20 ar
     5    24    19 ar
     6    20    19 ar
     7    19    18 1
     8    18     1 1
     9    18    17 2
    10     1     8 2
    11    17    15 1
    12     8     7 1
    13     8    13 1
    14     2     7 ar
    15     2     6 ar
    16     7     4 ar
    17    15    13 1
    18    15    16 2
    19     9    10 1
    20     6     5 ar
    21    13    14 1
    22     4     3 ar
    23     5     3 ar
    24     3    41 1
    25    10    11 2
    26    10    41 1
    27    10    12 2
    28     1    25 1
    29     2    26 1
    30     4    27 1
    31     5    28 1
    32     6    29 1
    33     9    30 1
    34     9    31 1
    35     9    32 1
    36    41    33 1
    37    14    34 1
    38    17    35 1
    39    20    36 1
    40    21    37 1
    41    22    38 1
    42    23    39 1
    43    24    40 1
@<TRIPOS>SUBSTRUCTURE
     1 HPU         1 TEMP              0 ****  ****    0 ROOT
