@<TRIPOS>MOLECULE
HPU
   41    43     1     0     0
SMALL
bcc


@<TRIPOS>ATOM
      1 C14          0.0000     0.0000     0.0000 cc         1 HPU      -0.191000
      2 C11          1.7300     0.8860    -2.2980 ca         1 HPU      -0.078000
      3 C7           3.8370    -0.8810    -2.6920 ca         1 HPU       0.041600
      4 C8           3.1540    -0.8870    -1.4860 ca         1 HPU      -0.053000
      5 C9           3.4650     0.0060    -3.6970 ca         1 HPU      -0.108000
      6 C10          2.4160     0.8840    -3.4960 ca         1 HPU      -0.100000
      7 C12          2.0960    -0.0010    -1.2830 ca         1 HPU      -0.064800
      8 C13          1.3640     0.0000     0.0000 cd         1 HPU      -0.041600
      9 C1           3.6760    -3.3850    -4.7500 c3         1 HPU       0.013700
     10 S2           4.5940    -3.3690    -3.1850 s6         1 HPU       0.950900
     11 O3           3.7520    -3.7640    -2.1100 o          1 HPU      -0.580300
     12 O4           5.8820    -3.9450    -3.3560 o          1 HPU      -0.580300
     13 N15          2.0610     0.0000     1.1770 n          1 HPU       0.270500
     14 O16          3.4770     0.0010     1.1490 oh         1 HPU      -0.458100
     15 C18          1.4230     0.0010     2.3620 c          1 HPU       0.567700
     16 O19          2.0670     0.0030     3.3990 o          1 HPU      -0.703500
     17 C20          0.0230     0.0020     2.4100 cd         1 HPU      -0.234200
     18 C21         -0.6980     0.0060     1.2230 cc         1 HPU       0.060800
     19 C22         -2.1800     0.0070     1.2440 ca         1 HPU      -0.064800
     20 C23         -2.8730     1.1020     1.7580 ca         1 HPU      -0.083000
     21 C24         -4.2530     1.0980     1.7730 ca         1 HPU      -0.101000
     22 C25         -4.9490     0.0080     1.2820 ca         1 HPU      -0.095000
     23 C26         -4.2670    -1.0820     0.7710 ca         1 HPU      -0.101000
     24 C27         -2.8870    -1.0860     0.7440 ca         1 HPU      -0.083000
     25 H1          -0.5440     0.0030    -0.9370 ha         1 HPU       0.134000
     26 H2           0.9090     1.5760    -2.1450 ha         1 HPU       0.112000
     27 H3           3.4420    -1.5770    -0.7030 ha         1 HPU       0.147000
     28 H4           3.9990     0.0100    -4.6390 ha         1 HPU       0.107000
     29 H5           2.1320     1.5730    -4.2830 ha         1 HPU       0.107000
     30 H6           4.1460    -2.7070    -5.4510 h1         1 HPU       0.063367
     31 H7           3.6800    -4.3880    -5.1600 h1         1 HPU       0.063367
     32 H8           2.6550    -3.0720    -4.5730 h1         1 HPU       0.063367
     33 H9           5.8410    -1.4390    -2.8420 hn         1 HPU       0.354800
     34 H10          3.8010     0.7470     1.6250 ho         1 HPU       0.423000
     35 H11         -0.4920     0.0050     3.3630 ha         1 HPU       0.145000
     36 H12         -2.3300     1.9570     2.1430 ha         1 HPU       0.109500
     37 H13         -4.7920     1.9480     2.1720 ha         1 HPU       0.104000
     38 H14         -6.0330     0.0070     1.2980 ha         1 HPU       0.103000
     39 H15         -4.8170    -1.9320     0.3850 ha         1 HPU       0.104000
     40 H16         -2.3550    -1.9410     0.3440 ha         1 HPU       0.109500
     41 N5           4.8970    -1.7670    -2.9000 nu         1 HPU      -0.435500
@<TRIPOS>BOND
     1     1     8 2   
     2     1    18 1   
     3     1    25 1   
     4     2     6 ar  
     5     2     7 ar  
     6     2    26 1   
     7     3     4 ar  
     8     3     5 ar  
     9     3    41 1   
    10     4     7 ar  
    11     4    27 1   
    12     5     6 ar  
    13     5    28 1   
    14     6    29 1   
    15     7     8 1   
    16     8    13 1   
    17     9    10 1   
    18     9    30 1   
    19     9    31 1   
    20     9    32 1   
    21    10    11 2   
    22    10    12 2   
    23    10    41 1   
    24    13    14 1   
    25    13    15 1   
    26    14    34 1   
    27    15    16 2   
    28    15    17 1   
    29    17    18 2   
    30    17    35 1   
    31    18    19 1   
    32    19    20 ar  
    33    19    24 ar  
    34    20    21 ar  
    35    20    36 1   
    36    21    22 ar  
    37    21    37 1   
    38    22    23 ar  
    39    22    38 1   
    40    23    24 ar  
    41    23    39 1   
    42    24    40 1   
    43    33    41 1   
@<TRIPOS>SUBSTRUCTURE
     1 HPU         1 TEMP              0 ****  ****    0 ROOT
