@<TRIPOS>MOLECULE
molecule
   13    12     1     0     0
SMALL
bcc


@<TRIPOS>ATOM
      1 C2           0.0000     0.0000     0.0000 c          1 HPV       0.458100
      2 O4P          4.2200    -1.3770     1.2270 o          1 HPV      -0.934833
      3 P            3.5480    -0.0010     1.7250 p5         1 HPV       1.220900
      4 O2P          3.7160     0.1300     3.3200 o          1 HPV      -0.934833
      5 O3P          4.2150     1.1410     1.0620 o          1 HPV      -0.934833
      6 O1P          1.9820    -0.0010     1.3480 os         1 HPV      -0.583200
      7 C3           1.5070     0.0000     0.0000 c3         1 HPV       0.126400
      8 O3          -0.6040     0.0000     1.0470 o          1 HPV      -0.547100
      9 C1          -0.7460     0.0070    -1.2910 c          1 HPV       0.801600
     10 O1          -0.1390     0.0130    -2.3410 o          1 HPV      -0.866800
     11 O2          -2.0910     0.0080    -1.2910 o          1 HPV      -0.866800
     12 H3           1.8680    -0.8840    -0.5110 h1         1 HPV       0.031200
     13 H3A          1.8680     0.8850    -0.5100 h1         1 HPV       0.031200
@<TRIPOS>BOND
     1     1     7 1
     2     1     8 2
     3     1     9 1
     4     2     3 1
     5     3     4 1
     6     3     5 1
     7     3     6 1
     8     6     7 1
     9     9    10 1
    10     9    11 1
    11     7    12 1
    12     7    13 1
@<TRIPOS>SUBSTRUCTURE
     1 HPV         1 TEMP              0 ****  ****    0 ROOT
