@<TRIPOS>MOLECULE
HPV
   13    12     1     0     0
SMALL
bcc


@<TRIPOS>ATOM
      1 C2          0.0420    0.3730    0.0260 c         1 HPV      0.475100
      2 O4P         4.0720   -1.5110    1.2830 o         1 HPV     -0.946833
      3 P           3.6040   -0.1390    1.7040 p5        1 HPV      1.322900
      4 O2P         3.7410    0.1470    3.1800 o         1 HPV     -0.946833
      5 O3P         4.0400    0.9790    0.7880 o         1 HPV     -0.946833
      6 O1P         1.8910   -0.2170    1.4840 os        1 HPV     -0.566200
      7 C3          1.4610   -0.1410    0.1800 c3        1 HPV      0.125400
      8 O3         -0.5910    0.9950    0.8950 o         1 HPV     -0.628100
      9 C1         -0.6430    0.0910   -1.3190 c         1 HPV      0.824600
     10 O1         -0.5760    0.9540   -2.2490 o         1 HPV     -0.880300
     11 O2         -1.3010   -0.9860   -1.4670 o         1 HPV     -0.880300
     12 H3          1.4630   -1.1660   -0.3030 h1        1 HPV      0.023700
     13 H3A         2.1390    0.5410   -0.4150 h1        1 HPV      0.023700
@<TRIPOS>BOND
     1    1    7 1   
     2    1    8 2   
     3    1    9 1   
     4    2    3 1   
     5    3    4 1   
     6    3    5 1   
     7    3    6 1   
     8    6    7 1   
     9    7   12 1   
    10    7   13 1   
    11    9   10 1   
    12    9   11 1   
@<TRIPOS>SUBSTRUCTURE
     1 HPV         1 TEMP              0 ****  ****    0 ROOT
