@<TRIPOS>MOLECULE
HPW
   49    51     1     0     0
SMALL
bcc


@<TRIPOS>ATOM
      1 C14          0.0000     0.0000     0.0000 c3         1 HPW       0.010700
      2 C7           1.8190     3.8300     2.2240 ca         1 HPW       0.065100
      3 C8           1.2760     4.9320     1.5800 ca         1 HPW      -0.113000
      4 C9           2.1350     2.6880     1.5020 ca         1 HPW      -0.127000
      5 C10          1.9070     2.6420     0.1330 ca         1 HPW       0.065100
      6 C1           4.1090     5.6900     3.5950 c3         1 HPW       0.010700
      7 S2           3.5960     4.0490     4.1740 s6         1 HPW       0.951900
      8 O3           4.3350     3.0320     3.5100 o          1 HPW      -0.575800
      9 O4           3.4480     4.0430     5.5880 o          1 HPW      -0.575800
     10 N11          2.2280     1.4910    -0.5910 nu         1 HPW      -0.423000
     11 S13          1.8140     0.0000     0.0000 s6         1 HPW       0.951900
     12 O15          2.3130     0.0000     1.3300 o          1 HPW      -0.575800
     13 O16          2.3140    -0.9110    -0.9690 o          1 HPW      -0.575800
     14 C17          1.3580     3.7380    -0.5180 ca         1 HPW      -0.113000
     15 C18          1.0430     4.8890     0.2050 ca         1 HPW      -0.048800
     16 C19          0.4590     6.0590    -0.4840 cc         1 HPW      -0.041600
     17 C20         -0.6350     6.6780     0.0460 cd         1 HPW      -0.192000
     18 N21          1.0250     6.5150    -1.6440 n          1 HPW       0.276500
     19 O22          2.1630     5.8570    -2.1680 oh         1 HPW      -0.473100
     20 C24          0.5160     7.5780    -2.2930 c          1 HPW       0.562700
     21 O25          1.0380     7.9650    -3.3270 o          1 HPW      -0.713500
     22 C26         -0.6110     8.2410    -1.7890 cc         1 HPW      -0.235200
     23 C27         -1.1920     7.7930    -0.6100 cd         1 HPW       0.062800
     24 C28         -2.3840     8.4760    -0.0550 ca         1 HPW      -0.067800
     25 C29         -2.3030     9.1420     1.1680 ca         1 HPW      -0.082500
     26 C30         -3.4170     9.7750     1.6800 ca         1 HPW      -0.099500
     27 C31         -4.6120     9.7510     0.9840 ca         1 HPW      -0.092000
     28 C32         -4.6980     9.0910    -0.2290 ca         1 HPW      -0.099500
     29 C33         -3.5900     8.4600    -0.7540 ca         1 HPW      -0.082500
     30 H1          -0.3610     0.4650     0.9100 h1         1 HPW       0.063700
     31 H2          -0.3610     0.5550    -0.8570 h1         1 HPW       0.063700
     32 H3          -0.3610    -1.0200    -0.0520 h1         1 HPW       0.063700
     33 H4           1.0310     5.8240     2.1450 ha         1 HPW       0.118500
     34 H5           2.5600     1.8290     2.0080 ha         1 HPW       0.199000
     35 H6           3.3020     6.3960     3.7510 h1         1 HPW       0.063700
     36 H7           4.3470     5.6410     2.5390 h1         1 HPW       0.063700
     37 H8           4.9830     6.0120     4.1480 h1         1 HPW       0.063700
     38 H9           1.2850     3.8150     4.2410 hn         1 HPW       0.353300
     39 H10          2.7400     1.5650    -1.4470 hn         1 HPW       0.353300
     40 H11          1.1800     3.7020    -1.5860 ha         1 HPW       0.118500
     41 H12         -1.0740     6.3140     0.9670 ha         1 HPW       0.135000
     42 H13          2.7410     6.4910    -2.5590 ho         1 HPW       0.437000
     43 H14         -1.0210     9.0960    -2.3120 ha         1 HPW       0.146000
     44 H15         -1.3680     9.1610     1.7150 ha         1 HPW       0.108000
     45 H16         -3.3550    10.2930     2.6300 ha         1 HPW       0.105500
     46 H17         -5.4840    10.2480     1.3910 ha         1 HPW       0.104000
     47 H18         -5.6360     9.0770    -0.7710 ha         1 HPW       0.105500
     48 H19         -3.6590     7.9430    -1.7040 ha         1 HPW       0.108000
     49 N5           2.0520     3.8720     3.6010 nu         1 HPW      -0.423000
@<TRIPOS>BOND
     1     1    11 1   
     2     1    30 1   
     3     1    31 1   
     4     1    32 1   
     5     2     3 ar  
     6     2     4 ar  
     7     2    49 1   
     8     3    15 ar  
     9     3    33 1   
    10     4     5 ar  
    11     4    34 1   
    12     5    10 1   
    13     5    14 ar  
    14     6     7 1   
    15     6    35 1   
    16     6    36 1   
    17     6    37 1   
    18     7     8 2   
    19     7     9 2   
    20     7    49 1   
    21    10    11 1   
    22    10    39 1   
    23    11    12 2   
    24    11    13 2   
    25    14    15 ar  
    26    14    40 1   
    27    15    16 1   
    28    16    17 2   
    29    16    18 1   
    30    17    23 1   
    31    17    41 1   
    32    18    19 1   
    33    18    20 1   
    34    19    42 1   
    35    20    21 2   
    36    20    22 1   
    37    22    23 2   
    38    22    43 1   
    39    23    24 1   
    40    24    25 ar  
    41    24    29 ar  
    42    25    26 ar  
    43    25    44 1   
    44    26    27 ar  
    45    26    45 1   
    46    27    28 ar  
    47    27    46 1   
    48    28    29 ar  
    49    28    47 1   
    50    29    48 1   
    51    38    49 1   
@<TRIPOS>SUBSTRUCTURE
     1 HPW         1 TEMP              0 ****  ****    0 ROOT
