@<TRIPOS>MOLECULE
HPX
   25    25     1     0     0
SMALL
bcc


@<TRIPOS>ATOM
      1 CB3         0.0310   -0.2310   -0.0320 ca        1 HPX     -0.148500
      2 CB4         1.3700    0.1600   -0.0490 ca        1 HPX     -0.129000
      3 CB5         2.0460    0.3770    1.1510 ca        1 HPX     -0.148500
      4 CB6         1.3860    0.2030    2.3660 ca        1 HPX     -0.094000
      5 CB1         0.0380   -0.1770    2.3880 ca        1 HPX     -0.138600
      6 CB2        -0.6350   -0.3980    1.1820 ca        1 HPX     -0.094000
      7 CA6        -0.6490   -0.3520    3.7000 c         1 HPX      0.584900
      8 OA4        -0.0180   -0.8200    4.6650 o         1 HPX     -0.590100
      9 CA5        -2.0370    0.0640    3.7530 ce        1 HPX     -0.377200
     10 CA4        -2.8130   -0.1130    4.8520 cf        1 HPX      0.061000
     11 CA3        -4.1790    0.2880    4.9250 cf        1 HPX     -0.305000
     12 CA2        -4.9800    0.1060    6.0100 ce        1 HPX      0.097900
     13 OA3        -4.4890   -0.4960    7.1290 oh        1 HPX     -0.528100
     14 CA1        -6.4520    0.5340    6.0860 c         1 HPX      0.885800
     15 OA2        -7.0120    0.2710    7.1900 o         1 HPX     -0.802300
     16 OA1        -6.9830    1.0900    5.0960 o         1 HPX     -0.802300
     17 HB3        -0.5020   -0.4070   -0.9770 ha        1 HPX      0.123000
     18 HB4         1.8910    0.2970   -1.0070 ha        1 HPX      0.119000
     19 HB5         3.1020    0.6820    1.1410 ha        1 HPX      0.123000
     20 HB6         1.9140    0.3540    3.3210 ha        1 HPX      0.146000
     21 HB2        -1.6920   -0.7080    1.1930 ha        1 HPX      0.146000
     22 HA5        -2.4440    0.5520    2.8560 ha        1 HPX      0.127000
     23 HA4        -2.3820   -0.5990    5.7500 ha        1 HPX      0.135000
     24 H1         -4.6370    0.7820    4.0520 ha        1 HPX      0.154000
     25 HA3        -5.2200   -0.5270    7.7830 ho        1 HPX      0.455000
@<TRIPOS>BOND
     1    1    2 ar  
     2    1    6 ar  
     3    1   17 1   
     4    2    3 ar  
     5    2   18 1   
     6    3    4 ar  
     7    3   19 1   
     8    4    5 ar  
     9    4   20 1   
    10    5    6 ar  
    11    5    7 1   
    12    6   21 1   
    13    7    8 2   
    14    7    9 1   
    15    9   10 2   
    16    9   22 1   
    17   10   11 1   
    18   10   23 1   
    19   11   12 2   
    20   11   24 1   
    21   12   13 1   
    22   12   14 1   
    23   13   25 1   
    24   14   15 1   
    25   14   16 1   
@<TRIPOS>SUBSTRUCTURE
     1 HPX         1 TEMP              0 ****  ****    0 ROOT
