@<TRIPOS>MOLECULE
molecule
   25    25     1     0     0
SMALL
bcc


@<TRIPOS>ATOM
      1 CB3          0.0000     0.0000     0.0000 ca         1 HPX      -0.151000
      2 CB4          1.3830     0.0000     0.0000 ca         1 HPX      -0.121000
      3 CB5          2.0820     0.0000     1.1950 ca         1 HPX      -0.151000
      4 CB6          1.4020     0.0010     2.3950 ca         1 HPX      -0.085000
      5 CB1          0.0050     0.0020     2.4020 ca         1 HPX      -0.147600
      6 CB2         -0.6930     0.0020     1.1930 ca         1 HPX      -0.085000
      7 CA6         -0.7320     0.0030     3.6850 c          1 HPX       0.580900
      8 OA4         -0.1190     0.0030     4.7380 o          1 HPX      -0.586100
      9 CA5         -2.1920     0.0040     3.6890 ce         1 HPX      -0.363200
     10 CA4         -2.8680     0.0050     4.8660 cf         1 HPX      -0.022000
     11 CA3         -4.2810     0.0060     4.8700 cf         1 HPX      -0.402000
     12 CA2         -4.9570     0.0070     6.0480 ce         1 HPX       0.223900
     13 OA3         -4.2760     0.0070     7.2200 oh         1 HPX      -0.551100
     14 CA1         -6.4320     0.0080     6.0520 c          1 HPX       0.837800
     15 OA2         -7.1030     0.0090     7.2210 o          1 HPX      -0.786300
     16 OA1         -7.0420     0.0080     5.0010 o          1 HPX      -0.786300
     17 HB3         -0.5410    -0.0000    -0.9390 ha         1 HPX       0.123000
     18 HB4          1.9230    -0.0010    -0.9400 ha         1 HPX       0.118000
     19 HB5          3.1650    -0.0000     1.1880 ha         1 HPX       0.123000
     20 HB6          1.9500     0.0010     3.3300 ha         1 HPX       0.149000
     21 HB2         -1.7760     0.0020     1.1920 ha         1 HPX       0.149000
     22 HA5         -2.7360     0.0040     2.7520 ha         1 HPX       0.145000
     23 HA4         -2.3240     0.0050     5.8030 ha         1 HPX       0.120000
     24 H1          -3.6680     0.8800     5.0540 ha         1 HPX       0.229000
     25 HA3         -4.4860    -0.7730     7.7050 ho         1 HPX       0.439000
@<TRIPOS>BOND
     1     1     2 ar
     2     1     6 ar
     3     1    17 1
     4     2     3 ar
     5     2    18 1
     6     3     4 ar
     7     3    19 1
     8     4     5 ar
     9     4    20 1
    10     5     6 ar
    11     5     7 1
    12     6    21 1
    13     7     8 2
    14     7     9 1
    15     9    10 2
    16     9    22 1
    17    10    11 1
    18    10    23 1
    19    11    12 2
    20    11    24 1
    21    12    13 1
    22    12    14 1
    23    13    25 1
    24    14    15 1
    25    14    16 1
@<TRIPOS>SUBSTRUCTURE
     1 HPX         1 TEMP              0 ****  ****    0 ROOT
