@<TRIPOS>MOLECULE
HPY
   14    14     1     0     0
SMALL
bcc


@<TRIPOS>ATOM
      1 N1           0.0000     0.0000     0.0000 ns         1 HPY      -0.028100
      2 C2           1.3390     0.0000     0.0000 c          1 HPY       0.605500
      3 O2           1.9300    -0.0030    -1.0620 o          1 HPY      -0.730500
      4 N3           2.0480     0.0000     1.1470 ns         1 HPY      -0.203900
      5 C4           1.3140     0.0020     2.4230 c3         1 HPY       0.304700
      6 O4           1.7210     1.1560     3.1610 oh         1 HPY      -0.590800
      7 C5          -0.1970     0.0050     2.3490 c2         1 HPY      -0.259200
      8 C6          -0.7630     0.0030     1.1570 c2         1 HPY      -0.117400
      9 H1          -0.4740    -0.0020    -0.8810 hn         1 HPY       0.183500
     10 H3           3.0490    -0.0010     1.1320 hn         1 HPY       0.207500
     11 H4           1.6150    -0.8780     2.9770 h2         1 HPY      -0.012300
     12 HO4          2.1570     0.8860     3.9510 ho         1 HPY       0.392000
     13 H5          -0.7830    -0.2410     3.2270 ha         1 HPY       0.131000
     14 H6          -1.8440     0.0030     1.0810 h4         1 HPY       0.120000
@<TRIPOS>BOND
     1     1     2 1   
     2     1     8 1   
     3     1     9 1   
     4     2     3 2   
     5     2     4 1   
     6     4     5 1   
     7     4    10 1   
     8     5     6 1   
     9     5     7 1   
    10     5    11 1   
    11     6    12 1   
    12     7     8 2   
    13     7    13 1   
    14     8    14 1   
@<TRIPOS>SUBSTRUCTURE
     1 HPY         1 TEMP              0 ****  ****    0 ROOT
