@<TRIPOS>MOLECULE
molecule
   25    25     1     0     0
SMALL
bcc


@<TRIPOS>ATOM
      1 CB3          0.0000     0.0000     0.0000 ca         1 HPZ      -0.151500
      2 CB4          1.3840     0.0000     0.0000 ca         1 HPZ      -0.124000
      3 CB5          2.0810     0.0000     1.1950 ca         1 HPZ      -0.151500
      4 CB6          1.4010    -0.0010     2.3950 ca         1 HPZ      -0.087500
      5 CB1          0.0040     0.0000     2.4010 ca         1 HPZ      -0.143600
      6 CB2         -0.6930    -0.0000     1.1920 ca         1 HPZ      -0.087500
      7 CA6         -0.7320     0.0000     3.6840 c          1 HPZ       0.579900
      8 OA4         -0.1210     0.0010     4.7370 o          1 HPZ      -0.549100
      9 CA5         -2.1940     0.0000     3.6880 ce         1 HPZ      -0.373200
     10 CA4         -2.8690     0.0010     4.8650 cf         1 HPZ       0.033000
     11 CA3         -4.2810     0.0010     4.8680 cf         1 HPZ      -0.262000
     12 CA2         -4.9580    -0.1320     6.0380 ce         1 HPZ       0.105900
     13 OA3         -6.3040     0.0270     6.0650 oh         1 HPZ      -0.529100
     14 CA1         -4.2280    -0.4490     7.2810 c          1 HPZ       0.857800
     15 OA2         -3.0370    -0.6880     7.2410 o          1 HPZ      -0.808800
     16 OA1         -4.8820    -0.4750     8.4590 o          1 HPZ      -0.808800
     17 HB3         -0.5400    -0.0000    -0.9390 ha         1 HPZ       0.120500
     18 HB4          1.9230     0.0000    -0.9390 ha         1 HPZ       0.116000
     19 HB5          3.1640    -0.0000     1.1880 ha         1 HPZ       0.120500
     20 HB6          1.9480    -0.0000     3.3300 ha         1 HPZ       0.147000
     21 HB2         -1.7770    -0.0000     1.1900 ha         1 HPZ       0.147000
     22 HA5         -2.7380    -0.0010     2.7510 ha         1 HPZ       0.106000
     23 HA4         -2.3250     0.0020     5.8020 ha         1 HPZ       0.228000
     24 HA3         -4.8200     0.2340     3.9570 ha         1 HPZ       0.103000
     25 HOA3        -6.7210    -0.7900     5.8490 ho         1 HPZ       0.413000
@<TRIPOS>BOND
     1     1     6 ar
     2     1     2 ar
     3     1    17 1
     4     2     3 ar
     5     2    18 1
     6     3     4 ar
     7     3    19 1
     8     4     5 ar
     9     4    20 1
    10     5     7 1
    11     5     6 ar
    12     6    21 1
    13     7     9 1
    14     7     8 2
    15     9    10 2
    16     9    22 1
    17    10    11 1
    18    10    23 1
    19    11    12 2
    20    11    24 1
    21    12    13 1
    22    12    14 1
    23    13    25 1
    24    14    15 1
    25    14    16 1
@<TRIPOS>SUBSTRUCTURE
     1 HPZ         1 TEMP              0 ****  ****    0 ROOT
