@<TRIPOS>MOLECULE
HPZ
   25    25     1     0     0
SMALL
bcc


@<TRIPOS>ATOM
      1 CB3         0.1850   -0.2410   -0.3390 ca        1 HPZ     -0.148500
      2 CB4         1.4350    0.2270    0.0660 ca        1 HPZ     -0.132000
      3 CB5         1.6870    0.4560    1.4180 ca        1 HPZ     -0.148500
      4 CB6         0.6890    0.2270    2.3650 ca        1 HPZ     -0.097000
      5 CB1        -0.5680   -0.2370    1.9630 ca        1 HPZ     -0.136600
      6 CB2        -0.8110   -0.4790    0.6060 ca        1 HPZ     -0.097000
      7 CA6        -1.6510   -0.4960    2.9610 c         1 HPZ      0.591900
      8 OA4        -2.3730   -1.5000    2.8140 o         1 HPZ     -0.590100
      9 CA5        -1.7640    0.4870    4.0150 ce        1 HPZ     -0.393200
     10 CA4        -2.5910    0.4390    5.0900 cf        1 HPZ      0.090000
     11 CA3        -3.5090   -0.5980    5.4150 cf        1 HPZ     -0.377000
     12 CA2        -4.3010   -0.5380    6.5270 ce        1 HPZ      0.128900
     13 OA3        -5.1340   -1.5580    6.8620 oh        1 HPZ     -0.475100
     14 CA1        -4.3870    0.6540    7.5090 c         1 HPZ      0.923800
     15 OA2        -3.3270    0.9530    8.1150 o         1 HPZ     -0.792300
     16 OA1        -5.4920    1.2410    7.5890 o         1 HPZ     -0.792300
     17 HB3        -0.0150   -0.4260   -1.4040 ha        1 HPZ      0.121500
     18 HB4         2.2210    0.4130   -0.6800 ha        1 HPZ      0.118000
     19 HB5         2.6730    0.8180    1.7400 ha        1 HPZ      0.121500
     20 HB6         0.8880    0.4070    3.4330 ha        1 HPZ      0.144500
     21 HB2        -1.7960   -0.8650    0.3000 ha        1 HPZ      0.144500
     22 HA5        -1.1040    1.3640    3.9100 ha        1 HPZ      0.116000
     23 HA4        -2.5490    1.2780    5.8210 ha        1 HPZ      0.151000
     24 HA3        -3.5570   -1.4680    4.7400 ha        1 HPZ      0.136000
     25 HOA3       -5.0650   -2.2600    6.1950 ho        1 HPZ      0.393000
@<TRIPOS>BOND
     1    1    2 ar  
     2    1    6 ar  
     3    1   17 1   
     4    2    3 ar  
     5    2   18 1   
     6    3    4 ar  
     7    3   19 1   
     8    4    5 ar  
     9    4   20 1   
    10    5    6 ar  
    11    5    7 1   
    12    6   21 1   
    13    7    8 2   
    14    7    9 1   
    15    9   10 2   
    16    9   22 1   
    17   10   11 1   
    18   10   23 1   
    19   11   12 2   
    20   11   24 1   
    21   12   13 1   
    22   12   14 1   
    23   13   25 1   
    24   14   15 1   
    25   14   16 1   
@<TRIPOS>SUBSTRUCTURE
     1 HPZ         1 TEMP              0 ****  ****    0 ROOT
