@<TRIPOS>MOLECULE
molecule
   40    41     1     0     0
SMALL
bcc


@<TRIPOS>ATOM
      1 C8           0.0000     0.0000     0.0000 ca         1 HQ       -0.116000
      2 C7           1.3920     0.0000     0.0000 ca         1 HQ       -0.119000
      3 C6           2.0910     0.0000     1.1700 ca         1 HQ       -0.102000
      4 C5           1.3980    -0.0000     2.3900 ca         1 HQ       -0.073000
      5 C10         -0.0180     0.0000     2.3930 ca         1 HQ       -0.003300
      6 C9          -0.7030     0.0020     1.1660 ca         1 HQ       -0.088000
      7 C4           2.0850    -0.0010     3.6250 ca         1 HQ        0.146100
      8 C3           1.3340    -0.0010     4.7850 ca         1 HQ       -0.207000
      9 C2          -0.0550    -0.0010     4.7070 ca         1 HQ       -0.021600
     10 N1          -0.6820    -0.0050     3.5540 na         1 HQ        0.113600
     11 O4           3.4410    -0.0020     3.6710 oh         1 HQ       -0.502100
     12 C11         -0.8610    -0.0010     5.9800 c3         1 HQ       -0.034100
     13 C12         -1.0270     1.4350     6.4790 c3         1 HQ       -0.076400
     14 C13         -1.8450     1.4360     7.7720 c3         1 HQ       -0.080400
     15 C14         -2.0100     2.8720     8.2710 c3         1 HQ       -0.081400
     16 C15         -2.8280     2.8710     9.5640 c3         1 HQ       -0.081400
     17 C16         -2.9950     4.3080    10.0630 c3         1 HQ       -0.084400
     18 C17         -3.8130     4.3080    11.3560 c3         1 HQ       -0.092100
     19 O1          -2.0980    -0.0110     3.5390 o          1 HQ       -0.386000
     20 H8          -0.5330    -0.0000    -0.9430 ha         1 HQ        0.141000
     21 H7           1.9270    -0.0010    -0.9420 ha         1 HQ        0.137000
     22 H6           3.1740    -0.0000     1.1580 ha         1 HQ        0.153000
     23 H9          -1.7860     0.0020     1.1480 ha         1 HQ        0.182000
     24 H3           1.8240     0.0030     5.7510 ha         1 HQ        0.161000
     25 HO4          3.7410     0.7680     4.1260 ho         1 HQ        0.431000
     26 H111        -0.3470    -0.5870     6.7320 hc         1 HQ        0.076200
     27 H112        -1.8360    -0.4320     5.7900 hc         1 HQ        0.076200
     28 H121        -1.5400     2.0210     5.7260 hc         1 HQ        0.047700
     29 H122        -0.0510     1.8660     6.6690 hc         1 HQ        0.047700
     30 H131        -2.8210     1.0050     7.5820 hc         1 HQ        0.044200
     31 H132        -1.3320     0.8490     8.5240 hc         1 HQ        0.044200
     32 H141        -1.0350     3.3020     8.4610 hc         1 HQ        0.041700
     33 H142        -2.5240     3.4590     7.5190 hc         1 HQ        0.041700
     34 H151        -2.3140     2.2850    10.3160 hc         1 HQ        0.041700
     35 H152        -3.8040     2.4400     9.3740 hc         1 HQ        0.041700
     36 H161        -3.5090     4.8950     9.3110 hc         1 HQ        0.039700
     37 H162        -2.0190     4.7400    10.2530 hc         1 HQ        0.039700
     38 H171        -4.7320     3.7560    11.2010 hc         1 HQ        0.032367
     39 H172        -3.2390     3.8390    12.1460 hc         1 HQ        0.032367
     40 H173        -4.0470     5.3280    11.6360 hc         1 HQ        0.032367
@<TRIPOS>BOND
     1     1     2 ar
     2     1     6 ar
     3     1    20 1
     4     2     3 ar
     5     2    21 1
     6     3     4 ar
     7     3    22 1
     8     4     5 ar
     9     4     7 ar
    10     5     6 ar
    11     5    10 2
    12     6    23 1
    13     7     8 ar
    14     7    11 1
    15     8     9 ar
    16     8    24 1
    17     9    10 1
    18     9    12 1
    19    10    19 1
    20    11    25 1
    21    12    13 1
    22    12    26 1
    23    12    27 1
    24    13    14 1
    25    13    28 1
    26    13    29 1
    27    14    15 1
    28    14    30 1
    29    14    31 1
    30    15    16 1
    31    15    32 1
    32    15    33 1
    33    16    17 1
    34    16    34 1
    35    16    35 1
    36    17    18 1
    37    17    36 1
    38    17    37 1
    39    18    38 1
    40    18    39 1
    41    18    40 1
@<TRIPOS>SUBSTRUCTURE
     1 HQ          1 TEMP              0 ****  ****    0 ROOT
