@<TRIPOS>MOLECULE
HQ
   40    41     1     0     0
SMALL
bcc


@<TRIPOS>ATOM
      1 C8         -0.0120    0.2390   -0.0520 ca        1 HQ      -0.124000
      2 C7          1.3810    0.0100   -0.0840 ca        1 HQ      -0.118000
      3 C6          2.0800   -0.1710    1.0860 ca        1 HQ      -0.103000
      4 C5          1.4160   -0.1300    2.3370 ca        1 HQ      -0.025000
      5 C10         0.0160    0.1010    2.3700 ca        1 HQ      -0.078300
      6 C9         -0.6890    0.2850    1.1440 ca        1 HQ      -0.091000
      7 C4          2.1040   -0.3120    3.5790 ca        1 HQ       0.109100
      8 C3          1.4090   -0.2640    4.7650 ca        1 HQ      -0.193000
      9 C2          0.0060   -0.0340    4.7750 ca        1 HQ      -0.140600
     10 N1         -0.6970    0.1510    3.6080 na        1 HQ       0.229600
     11 O4          3.4590   -0.5310    3.4970 oh        1 HQ      -0.490100
     12 C11        -0.7170    0.0030    6.0870 c3        1 HQ      -0.015100
     13 C12        -1.0820    1.4210    6.4820 c3        1 HQ      -0.082400
     14 C13        -1.7600    1.4450    7.8350 c3        1 HQ      -0.077400
     15 C14        -2.1280    2.8570    8.2360 c3        1 HQ      -0.078400
     16 C15        -2.8080    2.8850    9.5880 c3        1 HQ      -0.079400
     17 C16        -3.1760    4.2970    9.9910 c3        1 HQ      -0.080400
     18 C17        -3.8530    4.3290   11.3370 c3        1 HQ      -0.092100
     19 O1         -1.9080    0.3510    3.6000 o         1 HQ      -0.304000
     20 H8         -0.5560    0.3810   -0.9990 ha        1 HQ       0.142000
     21 H7          1.8990   -0.0220   -1.0540 ha        1 HQ       0.141000
     22 H6          3.1670   -0.3510    1.0840 ha        1 HQ       0.157000
     23 H9         -1.7780    0.4630    1.1810 ha        1 HQ       0.173000
     24 H3          1.9130   -0.4000    5.7330 ha        1 HQ       0.152000
     25 HO4         3.7980   -0.6360    4.3980 ho        1 HQ       0.424000
     26 H111       -1.6560   -0.6130    6.0150 hc        1 HQ       0.061200
     27 H112       -0.0630   -0.4590    6.8730 hc        1 HQ       0.061200
     28 H121       -1.7690    1.8540    5.7050 hc        1 HQ       0.053700
     29 H122       -0.1600    2.0580    6.5100 hc        1 HQ       0.053700
     30 H131       -2.6850    0.8100    7.8030 hc        1 HQ       0.039200
     31 H132       -1.0790    1.0000    8.6080 hc        1 HQ       0.039200
     32 H141       -1.2050    3.4930    8.2660 hc        1 HQ       0.041200
     33 H142       -2.8100    3.3010    7.4630 hc        1 HQ       0.041200
     34 H151       -3.7320    2.2500    9.5580 hc        1 HQ       0.039200
     35 H152       -2.1270    2.4390   10.3610 hc        1 HQ       0.039200
     36 H161       -2.2500    4.9300   10.0200 hc        1 HQ       0.038700
     37 H162       -3.8550    4.7410    9.2160 hc        1 HQ       0.038700
     38 H171       -4.7910    3.7240   11.3210 hc        1 HQ       0.032367
     39 H172       -4.1150    5.3790   11.6140 hc        1 HQ       0.032367
     40 H173       -3.1820    3.9130   12.1270 hc        1 HQ       0.032367
@<TRIPOS>BOND
     1    1    2 ar  
     2    1    6 ar  
     3    1   20 1   
     4    2    3 ar  
     5    2   21 1   
     6    3    4 ar  
     7    3   22 1   
     8    4    5 ar  
     9    4    7 ar  
    10    5    6 ar  
    11    5   10 2   
    12    6   23 1   
    13    7    8 ar  
    14    7   11 1   
    15    8    9 ar  
    16    8   24 1   
    17    9   10 1   
    18    9   12 1   
    19   10   19 1   
    20   11   25 1   
    21   12   13 1   
    22   12   26 1   
    23   12   27 1   
    24   13   14 1   
    25   13   28 1   
    26   13   29 1   
    27   14   15 1   
    28   14   30 1   
    29   14   31 1   
    30   15   16 1   
    31   15   32 1   
    32   15   33 1   
    33   16   17 1   
    34   16   34 1   
    35   16   35 1   
    36   17   18 1   
    37   17   36 1   
    38   17   37 1   
    39   18   38 1   
    40   18   39 1   
    41   18   40 1   
@<TRIPOS>SUBSTRUCTURE
     1 HQ          1 TEMP              0 ****  ****    0 ROOT
