@<TRIPOS>MOLECULE
HQ2
   34    36     1     0     0
SMALL
bcc


@<TRIPOS>ATOM
      1 NAA          0.0000     0.0000     0.0000 nb         1 HQ2      -0.562000
      2 NAB         -0.8130     0.0000    -3.5360 nh         1 HQ2      -0.353000
      3 NAC         -2.6900    -1.0590    -5.3950 n7         1 HQ2      -0.589200
      4 CAD          3.4390    -0.0020     1.2040 ca         1 HQ2      -0.161000
      5 CAE          4.1600    -0.0030     0.0220 ca         1 HQ2      -0.078000
      6 CAF          3.5050    -0.0010    -1.2060 ca         1 HQ2      -0.085600
      7 CAG          2.0420    -0.0010    -1.2250 ca         1 HQ2      -0.098300
      8 CAH          1.3350     0.0000     0.0000 ca         1 HQ2       0.321600
      9 CAI          2.0610     0.0000     1.2120 ca         1 HQ2       0.039800
     10 CAJ          1.3290     0.0010    -2.4300 ca         1 HQ2      -0.068000
     11 CAK         -0.0550     0.0000    -2.3650 ca         1 HQ2      -0.147700
     12 CAL         -0.6860     0.0010    -1.1160 ca         1 HQ2       0.331200
     13 CAM          4.2690    -0.0010    -2.4620 c          1 HQ2       0.980200
     14 CAN         -0.4580    -1.1380    -4.3940 c3         1 HQ2       0.131800
     15 CAO         -1.2530    -1.0580    -5.7000 c3         1 HQ2       0.144300
     16 CAP         -3.0450     0.0800    -4.5380 c3         1 HQ2       0.144300
     17 CAQ         -2.2500    -0.0000    -3.2320 c3         1 HQ2       0.131800
     18 OAR          1.3960    -0.0000     2.3930 oh         1 HQ2      -0.491100
     19 OAS          3.6910    -0.1050    -3.5250 o          1 HQ2      -0.879800
     20 OAT          5.6130     0.1140    -2.4330 o          1 HQ2      -0.879800
     21 HNAC        -3.2120    -1.0100    -6.2480 hn         1 HQ2       0.241800
     22 HAD          3.9720    -0.0030     2.1470 ha         1 HQ2       0.093000
     23 HAE          5.2430    -0.0040     0.0530 ha         1 HQ2       0.132000
     24 HAJ          1.8270     0.2680    -3.3550 ha         1 HQ2       0.198000
     25 HAL         -1.7690     0.0040    -1.0700 h4         1 HQ2      -0.021900
     26 HAN         -0.6970    -2.0630    -3.8830 h1         1 HQ2       0.028200
     27 HANA         0.6020    -1.1060    -4.6150 h1         1 HQ2       0.028200
     28 HAO         -1.0150    -1.9140    -6.3200 h1         1 HQ2       0.006700
     29 HAOA        -0.9960    -0.1440    -6.2220 h1         1 HQ2       0.006700
     30 HAP         -4.1050     0.0490    -4.3170 h1         1 HQ2       0.006700
     31 HAPA        -2.8040     1.0050    -5.0490 h1         1 HQ2       0.006700
     32 HAQ         -2.4880     0.8560    -2.6120 h1         1 HQ2       0.028200
     33 HAQA        -2.5070    -0.9140    -2.7100 h1         1 HQ2       0.028200
     34 HOAR         1.4940     0.8400     2.8100 ho         1 HQ2       0.384000
@<TRIPOS>BOND
     1     1     8 ar  
     2     1    12 ar  
     3     2    11 1   
     4     2    14 1   
     5     2    17 1   
     6     3    15 1   
     7     3    16 1   
     8     3    21 1   
     9     4     5 ar  
    10     4     9 ar  
    11     4    22 1   
    12     5     6 ar  
    13     5    23 1   
    14     6     7 ar  
    15     6    13 1   
    16     7     8 ar  
    17     7    10 ar  
    18     8     9 ar  
    19     9    18 1   
    20    10    11 ar  
    21    10    24 1   
    22    11    12 ar  
    23    12    25 1   
    24    13    19 1   
    25    13    20 1   
    26    14    15 1   
    27    14    26 1   
    28    14    27 1   
    29    15    28 1   
    30    15    29 1   
    31    16    17 1   
    32    16    30 1   
    33    16    31 1   
    34    17    32 1   
    35    17    33 1   
    36    18    34 1   
@<TRIPOS>SUBSTRUCTURE
     1 HQ2         1 TEMP              0 ****  ****    0 ROOT
