@<TRIPOS>MOLECULE
HQ6
   34    34     1     0     0
SMALL
bcc


@<TRIPOS>ATOM
      1 O9           0.0000     0.0000     0.0000 o          1 HQ6      -0.639100
      2 C9           1.2130     0.0000     0.0000 c          1 HQ6       0.579100
      3 C10          1.9660     0.0000     1.3060 c3         1 HQ6      -0.066100
      4 N2           1.8870    -0.0060    -1.1660 ns         1 HQ6      -0.164900
      5 C5           1.1550    -0.0120    -2.4360 c3         1 HQ6       0.001700
      6 C6           0.7950     1.3990    -2.8180 c3         1 HQ6       0.173100
      7 O6           0.6810     2.1820    -1.6280 oh         1 HQ6      -0.564800
      8 C4           2.0440    -0.6190    -3.5440 c3         1 HQ6       0.162100
      9 O4           2.7210    -1.7660    -3.0230 oh         1 HQ6      -0.582800
     10 C3           1.2590    -1.0170    -4.7070 c3         1 HQ6       0.166100
     11 O3           2.1300    -1.6170    -5.6680 oh         1 HQ6      -0.597800
     12 C2           0.5320     0.1700    -5.3660 c3         1 HQ6       0.100500
     13 C8           0.1820    -0.1810    -6.8150 c3         1 HQ6       0.212400
     14 O8          -0.3870     0.9630    -7.4570 oh         1 HQ6      -0.605800
     15 N1          -0.6760     0.4310    -4.6230 n7         1 HQ6      -0.579200
     16 C7          -0.5260     1.4910    -3.6020 c3         1 HQ6       0.119800
     17 H101         2.4710    -0.9500     1.4320 hc         1 HQ6       0.019367
     18 H102         2.6970     0.7990     1.3010 hc         1 HQ6       0.019367
     19 H103         1.2720     0.1510     2.1230 hc         1 HQ6       0.019367
     20 H2           2.8870     0.0300    -1.1660 hn         1 HQ6       0.163500
     21 H5           0.2500    -0.6010    -2.3360 h1         1 HQ6       0.087700
     22 H6           1.5900     1.8040    -3.4320 h1         1 HQ6      -0.005300
     23 H4           2.7750     0.1190    -3.8500 h1         1 HQ6       0.009700
     24 HA           0.8790     3.0830    -1.8240 ho         1 HQ6       0.384000
     25 H71C        -1.3490     1.4140    -2.9020 h1         1 HQ6       0.020700
     26 H72C        -0.5700     2.4540    -4.0940 h1         1 HQ6       0.020700
     27 HB           3.6440    -1.6930    -3.2000 ho         1 HQ6       0.395000
     28 H3           0.5210    -1.7460    -4.3950 h1         1 HQ6       0.034700
     29 HC           2.0150    -2.5530    -5.6560 ho         1 HQ6       0.400000
     30 HD           1.1700     1.0450    -5.3420 h1         1 HQ6       0.028700
     31 H81C        -0.5330    -0.9950    -6.8270 h1         1 HQ6       0.005200
     32 H82C         1.0800    -0.4810    -7.3410 h1         1 HQ6       0.005200
     33 H1          -1.4100     0.6800    -5.2560 hn         1 HQ6       0.277800
     34 H8          -0.4480     0.8040    -8.3850 ho         1 HQ6       0.398000
@<TRIPOS>BOND
     1     1     2 2   
     2     2     3 1   
     3     2     4 1   
     4     3    17 1   
     5     3    18 1   
     6     3    19 1   
     7     4     5 1   
     8     4    20 1   
     9     5     6 1   
    10     5     8 1   
    11     5    21 1   
    12     6     7 1   
    13     6    16 1   
    14     6    22 1   
    15     7    24 1   
    16     8     9 1   
    17     8    10 1   
    18     8    23 1   
    19     9    27 1   
    20    10    11 1   
    21    10    12 1   
    22    10    28 1   
    23    11    29 1   
    24    12    13 1   
    25    12    15 1   
    26    12    30 1   
    27    13    14 1   
    28    13    31 1   
    29    13    32 1   
    30    14    34 1   
    31    15    16 1   
    32    15    33 1   
    33    16    25 1   
    34    16    26 1   
@<TRIPOS>SUBSTRUCTURE
     1 HQ6         1 TEMP              0 ****  ****    0 ROOT
