@<TRIPOS>MOLECULE
molecule
   34    34     1     0     0
SMALL
bcc


@<TRIPOS>ATOM
      1 O9           0.0000     0.0000     0.0000 o          1 HQ6      -0.600100
      2 C9           1.2130     0.0000     0.0000 c          1 HQ6       0.670100
      3 C10          1.9660     0.0000     1.3060 c3         1 HQ6      -0.168100
      4 N2           1.8870    -0.0060    -1.1660 ns         1 HQ6      -0.565900
      5 C5           1.1550    -0.0120    -2.4360 c3         1 HQ6       0.123700
      6 C6           0.7950     1.3990    -2.8180 c3         1 HQ6       0.131100
      7 O6           0.6810     2.1820    -1.6280 oh         1 HQ6      -0.579800
      8 C4           2.0440    -0.6190    -3.5440 c3         1 HQ6       0.124100
      9 O4           2.7210    -1.7660    -3.0230 oh         1 HQ6      -0.598800
     10 C3           1.2590    -1.0170    -4.7070 c3         1 HQ6       0.134100
     11 O3           2.1300    -1.6170    -5.6680 oh         1 HQ6      -0.618800
     12 C2           0.5320     0.1700    -5.3660 c3         1 HQ6       0.171500
     13 C8           0.1820    -0.1810    -6.8150 c3         1 HQ6       0.131400
     14 O8          -0.3870     0.9630    -7.4570 oh         1 HQ6      -0.624800
     15 N1          -0.6760     0.4310    -4.6230 n7         1 HQ6      -0.830200
     16 C7          -0.5260     1.4910    -3.6020 c3         1 HQ6       0.137800
     17 H101         2.4710    -0.9500     1.4320 hc         1 HQ6       0.057700
     18 H102         2.6970     0.7990     1.3010 hc         1 HQ6       0.057700
     19 H103         1.2720     0.1510     2.1230 hc         1 HQ6       0.057700
     20 H2           2.8870     0.0300    -1.1660 hn         1 HQ6       0.306500
     21 H5           0.2500    -0.6010    -2.3360 h1         1 HQ6       0.112700
     22 H6           1.5900     1.8040    -3.4320 h1         1 HQ6       0.018700
     23 H4           2.7750     0.1190    -3.8500 h1         1 HQ6       0.037700
     24 HA           0.8790     3.0830    -1.8240 ho         1 HQ6       0.398000
     25 H71C        -1.3490     1.4140    -2.9020 h1         1 HQ6       0.050700
     26 H72C        -0.5700     2.4540    -4.0940 h1         1 HQ6       0.050700
     27 HB           3.6440    -1.6930    -3.2000 ho         1 HQ6       0.406000
     28 H3           0.5210    -1.7460    -4.3950 h1         1 HQ6       0.069700
     29 HC           2.0150    -2.5530    -5.6560 ho         1 HQ6       0.414000
     30 HD           1.1700     1.0450    -5.3420 h1         1 HQ6       0.045700
     31 H81C        -0.5330    -0.9950    -6.8270 h1         1 HQ6       0.041700
     32 H82C         1.0800    -0.4810    -7.3410 h1         1 HQ6       0.041700
     33 H1          -1.4100     0.6800    -5.2560 hn         1 HQ6       0.383800
     34 H8          -0.4480     0.8040    -8.3850 ho         1 HQ6       0.410000
@<TRIPOS>BOND
     1     1     2 2
     2     2     3 1
     3     2     4 1
     4     4     5 1
     5     5     6 1
     6     5     8 1
     7     6     7 1
     8     6    16 1
     9     8     9 1
    10     8    10 1
    11    10    11 1
    12    10    12 1
    13    12    13 1
    14    12    15 1
    15    13    14 1
    16    15    16 1
    17     3    17 1
    18     3    18 1
    19     3    19 1
    20     4    20 1
    21     5    21 1
    22     6    22 1
    23     8    23 1
    24     7    24 1
    25    16    25 1
    26    16    26 1
    27     9    27 1
    28    10    28 1
    29    11    29 1
    30    12    30 1
    31    13    31 1
    32    13    32 1
    33    15    33 1
    34    14    34 1
@<TRIPOS>SUBSTRUCTURE
     1 HQ6         1 TEMP              0 ****  ****    0 ROOT
