@<TRIPOS>MOLECULE
HQ9
   19    19     1     0     0
SMALL
bcc


@<TRIPOS>ATOM
      1 C1         -0.1240   -0.0700    0.2420 c         1 HQ9      0.928600
      2 C2          1.4250   -0.0300    0.0960 c3        1 HQ9     -0.207200
      3 C1'         2.1080   -0.0040    1.4050 c2        1 HQ9     -0.002400
      4 C2'         2.4310   -1.1270    2.0800 ce        1 HQ9     -0.299200
      5 C3'         3.0330   -1.1030    3.4130 c         1 HQ9      0.572500
      6 O3'         3.5130   -2.1100    3.9610 o         1 HQ9     -0.585100
      7 C4'         3.0060    0.2060    4.0980 ce        1 HQ9     -0.260200
      8 C5'         2.7080    1.3280    3.4350 c2        1 HQ9     -0.120200
      9 C6'         2.4900    1.3470    1.9510 c3        1 HQ9      0.196500
     10 O6'         1.6250    2.4040    1.5940 oh        1 HQ9     -0.630800
     11 O1         -0.6820    0.8690    0.8800 o         1 HQ9     -0.825800
     12 O2         -0.7300   -1.0200   -0.3170 o         1 HQ9     -0.825800
     13 H21C        1.6730    0.8920   -0.4900 hc        1 HQ9      0.052200
     14 H22C        1.7390   -0.9290   -0.4920 hc        1 HQ9      0.052200
     15 H2'         2.2110   -2.1240    1.6650 ha        1 HQ9      0.153000
     16 H4'         3.2190    0.1920    5.1770 ha        1 HQ9      0.131000
     17 H5'         2.6310    2.3080    3.9290 ha        1 HQ9      0.130000
     18 H6'         3.4850    1.6260    1.4760 h1        1 HQ9      0.063700
     19 H6'A        0.7150    2.0500    1.5240 ho        1 HQ9      0.475000
@<TRIPOS>BOND
     1    1    2 1   
     2    1   11 1   
     3    1   12 1   
     4    2    3 1   
     5    2   13 1   
     6    2   14 1   
     7    3    4 2   
     8    3    9 1   
     9    4    5 1   
    10    4   15 1   
    11    5    6 2   
    12    5    7 1   
    13    7    8 2   
    14    7   16 1   
    15    8    9 1   
    16    8   17 1   
    17    9   10 1   
    18    9   18 1   
    19   10   19 1   
@<TRIPOS>SUBSTRUCTURE
     1 HQ9         1 TEMP              0 ****  ****    0 ROOT
