@<TRIPOS>MOLECULE
molecule
   19    19     1     0     0
SMALL
bcc


@<TRIPOS>ATOM
      1 C1           0.0000     0.0000     0.0000 c          1 HQ9       0.893600
      2 C2           1.5070     0.0000     0.0000 c3         1 HQ9      -0.164200
      3 C1'          2.0100     0.0000     1.4200 c2         1 HQ9       0.017600
      4 C2'          2.3170    -1.1610     1.9830 ce         1 HQ9      -0.269200
      5 C3'          2.8240    -1.1830     3.3680 c          1 HQ9       0.575500
      6 O3'          2.8340    -2.2110     4.0180 o          1 HQ9      -0.561100
      7 C4'          3.3200     0.0840     3.9370 ce         1 HQ9      -0.230200
      8 C5'          3.0020     1.2310     3.3520 c2         1 HQ9      -0.158200
      9 C6'          2.1460     1.3110     2.1290 c3         1 HQ9       0.208500
     10 O6'          0.8460     1.7640     2.5110 oh         1 HQ9      -0.524800
     11 O1          -0.6720    -0.0000    -1.1620 o          1 HQ9      -0.832800
     12 O2          -0.6040    -0.0050     1.0470 o          1 HQ9      -0.832800
     13 H21C         1.8680     0.8840    -0.5110 hc         1 HQ9       0.041200
     14 H22C         1.8680    -0.8840    -0.5110 hc         1 HQ9       0.041200
     15 H2'          2.3280    -2.0660     1.3880 ha         1 HQ9       0.151000
     16 H4'          3.8250     0.0870     4.8960 ha         1 HQ9       0.129000
     17 H5'          3.3790     2.1520     3.7790 ha         1 HQ9       0.106000
     18 H6'          2.5840     2.0300     1.4460 h1         1 HQ9       0.033700
     19 H6'A         0.8760     2.6890     2.6930 ho         1 HQ9       0.375000
@<TRIPOS>BOND
     1     1     2 1
     2     1    11 1
     3     1    12 1
     4     2     3 1
     5     3     4 2
     6     3     9 1
     7     4     5 1
     8     5     6 2
     9     5     7 1
    10     7     8 2
    11     8     9 1
    12     9    10 1
    13     2    13 1
    14     2    14 1
    15     4    15 1
    16     7    16 1
    17     8    17 1
    18     9    18 1
    19    10    19 1
@<TRIPOS>SUBSTRUCTURE
     1 HQ9         1 TEMP              0 ****  ****    0 ROOT
