@<TRIPOS>MOLECULE
HQC
   58    60     1     0     0
SMALL
bcc


@<TRIPOS>ATOM
      1 O33          0.0000     0.0000     0.0000 o          1 HQC      -0.579100
      2 C20          1.2080     0.0000     0.0000 c          1 HQC       0.643900
      3 C17          1.9620     0.0000     1.3040 c3         1 HQC      -0.095300
      4 C9           2.8410    -1.2500     1.3850 c3         1 HQC      -0.139400
      5 C11          3.6860    -1.1890     2.6320 c          1 HQC       0.972600
      6 O32          3.5940    -0.2430     3.3790 o          1 HQC      -0.891300
      7 O29          4.5410    -2.1860     2.9120 o          1 HQC      -0.891300
      8 N1           1.0100    -0.0000     2.4180 ns         1 HQC      -0.095900
      9 C19          0.4950     1.1630     2.8650 c          1 HQC       0.582100
     10 O30          0.8190     2.2090     2.3440 o          1 HQC      -0.679100
     11 C10         -0.4840     1.1630     4.0100 c3         1 HQC      -0.017400
     12 C14         -1.6950     0.3480     3.6360 cc         1 HQC       0.080600
     13 S35         -2.8410     0.5910     2.2890 ss         1 HQC      -0.303800
     14 C7          -3.9110    -0.7990     2.6150 cc         1 HQC       0.018900
     15 C15         -3.3330    -1.3480     3.7110 cd         1 HQC      -0.144000
     16 C5          -2.1940    -0.7620     4.2310 cd         1 HQC      -0.168000
     17 C12         -0.9100     2.6000     4.3170 c3         1 HQC      -0.016400
     18 C13         -1.8060     2.6120     5.5570 c3         1 HQC      -0.035400
     19 C6          -2.2320     4.0500     5.8630 c3         1 HQC      -0.040400
     20 C16         -3.1280     4.0630     7.1040 c3         1 HQC       0.041000
     21 N3          -3.5360     5.4390     7.3960 ns         1 HQC      -0.164900
     22 C8          -4.3340     5.6950     8.4530 c          1 HQC       0.474600
     23 O31         -4.7140     4.7840     9.1620 o          1 HQC      -0.662100
     24 C18         -4.7460     7.0870     8.7490 ca         1 HQC       0.321800
     25 N2          -4.3210     8.0640     7.9730 nb         1 HQC      -0.524000
     26 C24         -5.5770     7.3350     9.8530 ca         1 HQC      -0.150300
     27 C23         -5.9650     8.6120    10.1370 ca         1 HQC      -0.086000
     28 C22         -5.5090     9.6480     9.2990 ca         1 HQC      -0.107300
     29 C4          -5.8680    10.9850     9.5320 ca         1 HQC      -0.125000
     30 C21         -4.6710     9.3290     8.1990 ca         1 HQC       0.338600
     31 C25         -4.2160    10.3710     7.3590 ca         1 HQC       0.116800
     32 O28         -3.4130    10.0930     6.3000 oh         1 HQC      -0.463100
     33 C26         -4.5870    11.6590     7.6200 ca         1 HQC      -0.204000
     34 C27         -5.4100    11.9630     8.7020 ca         1 HQC      -0.055000
     35 H20          1.7490     0.0440    -0.9380 h4         1 HQC      -0.055800
     36 H17          2.5850     0.8840     1.3610 h1         1 HQC       0.088700
     37 H91          2.2130    -2.1320     1.4170 hc         1 HQC       0.016700
     38 H92          3.4840    -1.2960     0.5140 hc         1 HQC       0.016700
     39 HN1          0.7690    -0.8600     2.8690 hn         1 HQC       0.174500
     40 H10         -0.0150     0.7310     4.8860 hc         1 HQC       0.054700
     41 H7          -4.7950    -1.1210     2.0780 h4         1 HQC       0.153000
     42 H15         -3.7540    -2.2350     4.1700 ha         1 HQC       0.105000
     43 H5          -1.7120    -1.1810     5.1060 ha         1 HQC       0.118000
     44 H121        -0.0310     3.2060     4.4990 hc         1 HQC       0.037700
     45 H122        -1.4570     3.0020     3.4720 hc         1 HQC       0.037700
     46 H131        -1.2590     2.2100     6.4020 hc         1 HQC       0.019700
     47 H132        -2.6850     2.0060     5.3750 hc         1 HQC       0.019700
     48 H61         -2.7790     4.4520     5.0190 hc         1 HQC       0.020200
     49 H62         -1.3530     4.6560     6.0460 hc         1 HQC       0.020200
     50 H161        -2.5810     3.6620     7.9480 h1         1 HQC       0.026700
     51 H162        -4.0060     3.4560     6.9210 h1         1 HQC       0.026700
     52 HN3         -3.2660     6.1820     6.7820 hn         1 HQC       0.194500
     53 H24         -5.8480     6.5260    10.5200 ha         1 HQC       0.137000
     54 H23         -6.6060     8.8240    10.9840 ha         1 HQC       0.113000
     55 H4          -6.5070    11.2380    10.3690 ha         1 HQC       0.109000
     56 H28         -2.7190    10.7290     6.2550 ho         1 HQC       0.403000
     57 H26         -4.2370    12.4560     6.9750 ha         1 HQC       0.112000
     58 H27         -5.6890    12.9940     8.8860 ha         1 HQC       0.099000
@<TRIPOS>BOND
     1     1     2 2   
     2     2     3 1   
     3     2    35 1   
     4     3     4 1   
     5     3     8 1   
     6     3    36 1   
     7     4     5 1   
     8     4    37 1   
     9     4    38 1   
    10     5     6 1   
    11     5     7 1   
    12     8     9 1   
    13     8    39 1   
    14     9    10 2   
    15     9    11 1   
    16    11    12 1   
    17    11    17 1   
    18    11    40 1   
    19    12    13 1   
    20    12    16 2   
    21    13    14 1   
    22    14    15 2   
    23    14    41 1   
    24    15    16 1   
    25    15    42 1   
    26    16    43 1   
    27    17    18 1   
    28    17    44 1   
    29    17    45 1   
    30    18    19 1   
    31    18    46 1   
    32    18    47 1   
    33    19    20 1   
    34    19    48 1   
    35    19    49 1   
    36    20    21 1   
    37    20    50 1   
    38    20    51 1   
    39    21    22 1   
    40    21    52 1   
    41    22    23 2   
    42    22    24 1   
    43    24    25 ar  
    44    24    26 ar  
    45    25    30 ar  
    46    26    27 ar  
    47    26    53 1   
    48    27    28 ar  
    49    27    54 1   
    50    28    29 ar  
    51    28    30 ar  
    52    29    34 ar  
    53    29    55 1   
    54    30    31 ar  
    55    31    32 1   
    56    31    33 ar  
    57    32    56 1   
    58    33    34 ar  
    59    33    57 1   
    60    34    58 1   
@<TRIPOS>SUBSTRUCTURE
     1 HQC         1 TEMP              0 ****  ****    0 ROOT
