@<TRIPOS>MOLECULE
molecule
   22    23     1     0     0
SMALL
bcc


@<TRIPOS>ATOM
      1 N1           0.0000     0.0000     0.0000 na         1 HQD      -0.594400
      2 C2           1.3580     0.0000     0.0000 cc         1 HQD       0.129800
      3 C3           2.0830     0.0000     1.1420 cd         1 HQD      -0.101100
      4 C4           1.4270     0.0000     2.3980 c          1 HQD       0.565900
      5 C5          -0.7680    -0.0000     3.5980 ca         1 HQD      -0.033000
      6 C6          -2.1340     0.0010     3.5620 ca         1 HQD      -0.177000
      7 C7          -2.8080    -0.0000     2.3480 ca         1 HQD      -0.067000
      8 C8          -2.1140    -0.0010     1.1580 ca         1 HQD      -0.197000
      9 C9          -0.7220     0.0000     1.1710 ca         1 HQD       0.180600
     10 C10         -0.0450     0.0000     2.4040 ca         1 HQD      -0.205600
     11 C            2.0850     0.0010    -1.3200 c3         1 HQD      -0.053900
     12 O3           3.4430    -0.0000     1.0840 oh         1 HQD      -0.491100
     13 O13          2.0610    -0.0010     3.4410 o          1 HQD      -0.566100
     14 HC1          2.8150    -0.7990    -1.3310 hc         1 HQD       0.058033
     15 HC2          2.5880     0.9510    -1.4550 hc         1 HQD       0.058033
     16 HC3          1.3740    -0.1480    -2.1240 hc         1 HQD       0.058033
     17 H3           3.7780     0.7430     1.5590 ho         1 HQD       0.422000
     18 H5          -0.2480     0.0010     4.5490 ha         1 HQD       0.158000
     19 H6          -2.6960     0.0020     4.4890 ha         1 HQD       0.136000
     20 H7          -3.8910     0.0010     2.3360 ha         1 HQD       0.133000
     21 H8          -2.6490    -0.0020     0.2160 ha         1 HQD       0.132000
     22 H1N         -0.4880     0.0000    -0.8740 hn         1 HQD       0.452800
@<TRIPOS>BOND
     1     1     2 1
     2     1     9 1
     3     1    22 1
     4     2     3 2
     5     2    11 1
     6     3     4 1
     7     3    12 1
     8     4    10 1
     9     4    13 2
    10     5     6 ar
    11     5    10 ar
    12     6     7 ar
    13     7     8 ar
    14     8     9 ar
    15     9    10 ar
    16    11    14 1
    17    11    15 1
    18    11    16 1
    19    12    17 1
    20     5    18 1
    21     6    19 1
    22     7    20 1
    23     8    21 1
@<TRIPOS>SUBSTRUCTURE
     1 HQD         1 TEMP              0 ****  ****    0 ROOT
