@<TRIPOS>MOLECULE
HQE
   14    14     1     0     0
SMALL
bcc


@<TRIPOS>ATOM
      1 C1         -0.0630    0.1310    0.0180 ca        1 HQE     -0.148500
      2 C2          1.3250    0.1340   -0.0560 ca        1 HQE     -0.148500
      3 C3          2.0750    0.1310    1.1310 ca        1 HQE      0.089100
      4 O3          3.4460    0.1340    0.9880 oh        1 HQE     -0.499100
      5 C4          1.4450    0.1240    2.3840 ca        1 HQE     -0.148500
      6 C5          0.0570    0.1210    2.4580 ca        1 HQE     -0.148500
      7 C6         -0.6930    0.1240    1.2710 ca        1 HQE      0.089100
      8 O6         -2.0640    0.1210    1.4140 oh        1 HQE     -0.499100
      9 H1         -0.6630    0.1330   -0.9040 ha        1 HQE      0.144500
     10 H2          1.8420    0.1390   -1.0250 ha        1 HQE      0.144500
     11 H3          3.8360    0.1310    1.8740 ho        1 HQE      0.418000
     12 H4          2.0450    0.1220    3.3060 ha        1 HQE      0.144500
     13 H5         -0.4600    0.1160    3.4270 ha        1 HQE      0.144500
     14 H6         -2.4540    0.1240    0.5280 ho        1 HQE      0.418000
@<TRIPOS>BOND
     1    1    2 ar  
     2    1    7 ar  
     3    1    9 1   
     4    2    3 ar  
     5    2   10 1   
     6    3    4 1   
     7    3    5 ar  
     8    4   11 1   
     9    5    6 ar  
    10    5   12 1   
    11    6    7 ar  
    12    6   13 1   
    13    7    8 1   
    14    8   14 1   
@<TRIPOS>SUBSTRUCTURE
     1 HQE         1 TEMP              0 ****  ****    0 ROOT
