@<TRIPOS>MOLECULE
molecule
   14    14     1     0     0
SMALL
bcc


@<TRIPOS>ATOM
      1 C1           0.0000     0.0000     0.0000 ca         1 HQE      -0.140000
      2 C2           1.3820     0.0000     0.0000 ca         1 HQE      -0.140000
      3 C3           2.0750     0.0000     1.2010 ca         1 HQE       0.095600
      4 O3           3.4350     0.0000     1.2010 oh         1 HQE      -0.520100
      5 C4           1.3820    -0.0010     2.4020 ca         1 HQE      -0.140000
      6 C5           0.0000    -0.0010     2.4020 ca         1 HQE      -0.140000
      7 C6          -0.6930     0.0050     1.2010 ca         1 HQE       0.095600
      8 O6          -2.0530     0.0040     1.2010 oh         1 HQE      -0.520100
      9 H1          -0.5420     0.0020    -0.9380 ha         1 HQE       0.143000
     10 H2           1.9240    -0.0040    -0.9380 ha         1 HQE       0.143000
     11 H3           3.7490     0.8890     1.2010 ho         1 HQE       0.418000
     12 H4           1.9240    -0.0030     3.3400 ha         1 HQE       0.143000
     13 H5          -0.5420     0.0010     3.3400 ha         1 HQE       0.143000
     14 H6          -2.3680     0.8930     1.2010 ho         1 HQE       0.418000
@<TRIPOS>BOND
     1     6     5 ar
     2     6     7 ar
     3     8     7 1
     4     5     3 ar
     5     7     1 ar
     6     3     4 1
     7     3     2 ar
     8     1     2 ar
     9     1     9 1
    10     2    10 1
    11     4    11 1
    12     5    12 1
    13     6    13 1
    14     8    14 1
@<TRIPOS>SUBSTRUCTURE
     1 HQE         1 TEMP              0 ****  ****    0 ROOT
