@<TRIPOS>MOLECULE
molecule
   25    26     1     0     0
SMALL
bcc


@<TRIPOS>ATOM
      1 N1           0.0000     0.0000     0.0000 ns         1 HQI      -0.472100
      2 N2          -3.9530    -1.0910     2.5260 nb         1 HQI      -0.656000
      3 CAA          2.1020     0.8220    -1.0150 c3         1 HQI      -0.171100
      4 OAB          1.9540    -0.6620     0.8160 o          1 HQI      -0.591100
      5 CAD         -3.9180     0.8950     1.2480 ca         1 HQI      -0.251300
      6 CAE         -4.5480     0.0000     2.1090 ca         1 HQI       0.426200
      7 CAF         -0.7950    -2.8580     2.1840 ca         1 HQI      -0.138000
      8 CAG         -0.1090    -2.0060     1.3250 ca         1 HQI      -0.126000
      9 CAH         -2.6460     0.6450     0.8170 ca         1 HQI      -0.089000
     10 CAK          1.3480     0.0000     0.0000 c          1 HQI       0.656100
     11 CAL         -2.0760    -2.5690     2.5950 ca         1 HQI       0.050800
     12 CAM         -0.6980    -0.8490     0.8630 ca         1 HQI       0.053600
     13 CAN         -2.0100    -0.5260     1.2670 ca         1 HQI      -0.162300
     14 CAO         -2.7090    -1.3940     2.1420 ca         1 HQI       0.413600
     15 HN1         -0.5000     0.5730    -0.6510 hn         1 HQI       0.325500
     16 HAA          1.7730     0.5540    -2.0120 hc         1 HQI       0.064700
     17 HAAA         3.1630     0.6280    -0.9200 hc         1 HQI       0.064700
     18 HAAB         1.9100     1.8740    -0.8420 hc         1 HQI       0.064700
     19 HOAC        -2.3960    -3.3080     4.3100 ho         1 HQI       0.420000
     20 HAD         -4.4360     1.7890     0.9210 ha         1 HQI       0.137000
     21 HAE         -5.5560     0.2110     2.4430 h4         1 HQI       0.025100
     22 HAF         -0.3130    -3.7630     2.5350 ha         1 HQI       0.147000
     23 HAG          0.8980    -2.2550     1.0150 ha         1 HQI       0.177000
     24 HAH         -2.1400     1.3300     0.1470 ha         1 HQI       0.129000
     25 OAC         -2.7300    -3.4140     3.4350 oh         1 HQI      -0.500100
@<TRIPOS>BOND
     1     1    10 1
     2     1    12 1
     3     2     6 ar
     4     2    14 ar
     5     3    10 1
     6     4    10 2
     7    25    11 1
     8     5     6 ar
     9     5     9 ar
    10     7     8 ar
    11     7    11 ar
    12     8    12 ar
    13     9    13 ar
    14    11    14 ar
    15    12    13 ar
    16    13    14 ar
    17     1    15 1
    18     3    16 1
    19     3    17 1
    20     3    18 1
    21    25    19 1
    22     5    20 1
    23     6    21 1
    24     7    22 1
    25     8    23 1
    26     9    24 1
@<TRIPOS>SUBSTRUCTURE
     1 HQI         1 TEMP              0 ****  ****    0 ROOT
