@<TRIPOS>MOLECULE
HQI
   25    26     1     0     0
SMALL
bcc


@<TRIPOS>ATOM
      1 N1           0.0000     0.0000     0.0000 ns         1 HQI      -0.027100
      2 N2          -3.9530    -1.0910     2.5260 nb         1 HQI      -0.539000
      3 CAA          2.1020     0.8220    -1.0150 c3         1 HQI      -0.069100
      4 OAB          1.9540    -0.6620     0.8160 o          1 HQI      -0.631100
      5 CAD         -3.9180     0.8950     1.2480 ca         1 HQI      -0.209300
      6 CAE         -4.5480     0.0000     2.1090 ca         1 HQI       0.398200
      7 CAF         -0.7950    -2.8580     2.1840 ca         1 HQI      -0.128000
      8 CAG         -0.1090    -2.0060     1.3250 ca         1 HQI      -0.094000
      9 CAH         -2.6460     0.6450     0.8170 ca         1 HQI      -0.079000
     10 CAK          1.3480     0.0000     0.0000 c          1 HQI       0.556100
     11 CAL         -2.0760    -2.5690     2.5950 ca         1 HQI       0.072800
     12 CAM         -0.6980    -0.8490     0.8630 ca         1 HQI      -0.101400
     13 CAN         -2.0100    -0.5260     1.2670 ca         1 HQI      -0.144300
     14 CAO         -2.7090    -1.3940     2.1420 ca         1 HQI       0.358600
     15 HN1         -0.5000     0.5730    -0.6510 hn         1 HQI       0.170500
     16 HAA          1.7730     0.5540    -2.0120 hc         1 HQI       0.025033
     17 HAAA         3.1630     0.6280    -0.9200 hc         1 HQI       0.025033
     18 HAAB         1.9100     1.8740    -0.8420 hc         1 HQI       0.025033
     19 HOAC        -2.3960    -3.3080     4.3100 ho         1 HQI       0.403000
     20 HAD         -4.4360     1.7890     0.9210 ha         1 HQI       0.111000
     21 HAE         -5.5560     0.2110     2.4430 h4         1 HQI      -0.020900
     22 HAF         -0.3130    -3.7630     2.5350 ha         1 HQI       0.116000
     23 HAG          0.8980    -2.2550     1.0150 ha         1 HQI       0.157000
     24 HAH         -2.1400     1.3300     0.1470 ha         1 HQI       0.104000
     25 OAC         -2.7300    -3.4140     3.4350 oh         1 HQI      -0.481100
@<TRIPOS>BOND
     1     1    10 1   
     2     1    12 1   
     3     1    15 1   
     4     2     6 ar  
     5     2    14 ar  
     6     3    10 1   
     7     3    16 1   
     8     3    17 1   
     9     3    18 1   
    10     4    10 2   
    11     5     6 ar  
    12     5     9 ar  
    13     5    20 1   
    14     6    21 1   
    15     7     8 ar  
    16     7    11 ar  
    17     7    22 1   
    18     8    12 ar  
    19     8    23 1   
    20     9    13 ar  
    21     9    24 1   
    22    11    14 ar  
    23    11    25 1   
    24    12    13 ar  
    25    13    14 ar  
    26    19    25 1   
@<TRIPOS>SUBSTRUCTURE
     1 HQI         1 TEMP              0 ****  ****    0 ROOT
