@<TRIPOS>MOLECULE
molecule
   19    20     1     0     0
SMALL
bcc


@<TRIPOS>ATOM
      1 CAB          0.0000     0.0000     0.0000 ca         1 HQJ       0.027400
      2 CAC          1.3810     0.0000     0.0000 ca         1 HQJ      -0.096000
      3 CAD          2.0750     0.0000     1.2090 ca         1 HQJ      -0.088500
      4 CAE          1.3700     0.0000     2.4110 ca         1 HQJ      -0.127000
      5 CAF         -0.0100    -0.0010     2.3990 ca         1 HQJ      -0.121000
      6 CAG         -0.6940     0.0000     1.1970 ca         1 HQJ      -0.125000
      7 CAH          3.5580    -0.0000     1.2160 cc         1 HQJ       0.367800
      8 CAI          4.3550    -0.0000     2.3160 cd         1 HQJ      -0.257600
      9 CAK          5.6050    -0.0010     0.5170 cc         1 HQJ       0.399400
     10 NAJ          5.6450    -0.0010     1.8670 na         1 HQJ      -0.294900
     11 NAL          4.3590    -0.0060     0.1310 nd         1 HQJ      -0.688000
     12 Cl          -0.8670     0.0070    -1.5050 cl         1 HQJ      -0.111400
     13 H1           1.9240    -0.0000    -0.9380 ha         1 HQJ       0.166000
     14 H2           1.9040    -0.0000     3.3540 ha         1 HQJ       0.128000
     15 H3          -0.5580    -0.0010     3.3330 ha         1 HQJ       0.135000
     16 H4          -1.7770    -0.0000     1.1930 ha         1 HQJ       0.141000
     17 H5           4.0300    -0.0000     3.3500 h4         1 HQJ       0.178000
     18 H6           6.4670    -0.0030    -0.1390 h5         1 HQJ       0.067100
     19 H7           6.4700     0.0000     2.4350 hn         1 HQJ       0.300700
@<TRIPOS>BOND
     1     9    11 2
     2     9    10 1
     3    11     7 1
     4    10     8 1
     5     7     8 2
     6     7     3 1
     7     2     3 ar
     8     2     1 ar
     9     3     4 ar
    10    12     1 1
    11     1     6 ar
    12     4     5 ar
    13     6     5 ar
    14     2    13 1
    15     4    14 1
    16     5    15 1
    17     6    16 1
    18     8    17 1
    19     9    18 1
    20    10    19 1
@<TRIPOS>SUBSTRUCTURE
     1 HQJ         1 TEMP              0 ****  ****    0 ROOT
