@<TRIPOS>MOLECULE
HQL
   55    58     1     0     0
SMALL
bcc


@<TRIPOS>ATOM
      1 C1           0.0000     0.0000     0.0000 ca         1 HQL      -0.100000
      2 C2           1.3950     0.0000     0.0000 ca         1 HQL      -0.103250
      3 C3           2.0930     0.0000     1.2080 ca         1 HQL      -0.083750
      4 C4           1.3830     0.0000     2.3950 ca         1 HQL      -0.108800
      5 C5           2.1400     0.0010     3.7080 c3         1 HQL       0.278700
      6 O1           1.3830    -0.6670     4.7080 os         1 HQL      -0.386600
      7 C6           2.2230    -1.3570     5.6240 c3         1 HQL       0.173100
      8 C7           1.5640    -1.4100     7.0000 c3         1 HQL      -0.045400
      9 C8           2.3560    -2.2930     7.9620 c3         1 HQL       0.156800
     10 N1           2.5320    -3.6460     7.4140 n3         1 HQL      -0.524600
     11 C9           3.2500    -4.4940     8.3650 c3         1 HQL       0.153800
     12 C10          2.5240    -4.6230     9.7030 c3         1 HQL      -0.021400
     13 C11          1.1080    -5.2050     9.6040 c3         1 HQL      -0.043700
     14 C12          1.0620    -6.6080     9.0510 cc         1 HQL       0.213800
     15 N2           1.1420    -7.6800     9.8490 na         1 HQL       0.315600
     16 N3           1.0760    -8.7810     9.0880 nc         1 HQL      -0.358800
     17 N4           0.9590    -8.3310     7.8450 nd         1 HQL      -0.056000
     18 N5           0.9510    -6.9550     7.8150 nd         1 HQL      -0.328000
     19 C13          3.2370    -3.6120     6.1240 c3         1 HQL       0.156800
     20 C14          2.4720    -2.7690     5.1040 c3         1 HQL      -0.045400
     21 C15          2.5550     1.3910     4.1490 ca         1 HQL      -0.108800
     22 C16          3.7340     1.9260     3.6640 ca         1 HQL      -0.083750
     23 C17          4.1150     3.2050     4.0700 ca         1 HQL      -0.103250
     24 C18          3.3120     3.9250     4.9540 ca         1 HQL      -0.100000
     25 C19          2.1260     3.3660     5.4330 ca         1 HQL      -0.103250
     26 C20          1.7450     2.0870     5.0260 ca         1 HQL      -0.083750
     27 C21         -0.0000     0.0000     2.4150 ca         1 HQL      -0.083750
     28 C22         -0.6980     0.0010     1.2080 ca         1 HQL      -0.103250
     29 H1          -0.5420     0.0000    -0.9380 ha         1 HQL       0.102000
     30 H2           1.9360    -0.0000    -0.9380 ha         1 HQL       0.102250
     31 H3           3.1760    -0.0000     1.2160 ha         1 HQL       0.112250
     32 H5           3.0470    -0.5720     3.5560 h1         1 HQL       0.012700
     33 H6           3.1710    -0.8380     5.7060 h1         1 HQL       0.009700
     34 H71          1.5110    -0.4060     7.4050 hc         1 HQL       0.029450
     35 H72          0.5630    -1.8100     6.8970 hc         1 HQL       0.029450
     36 H81          3.3300    -1.8500     8.1290 h1         1 HQL       0.009200
     37 H82          1.8230    -2.3590     8.9020 h1         1 HQL       0.009200
     38 H91          3.3670    -5.4810     7.9350 h1         1 HQL       0.013200
     39 H92          4.2310    -4.0700     8.5400 h1         1 HQL       0.013200
     40 H101         2.4590    -3.6390    10.1530 hc         1 HQL       0.014700
     41 H102         3.1120    -5.2600    10.3520 hc         1 HQL       0.014700
     42 H111         0.5140    -4.5630     8.9650 hc         1 HQL       0.033700
     43 H112         0.6670    -5.2100    10.5940 hc         1 HQL       0.033700
     44 H131         3.3340    -4.6220     5.7460 h1         1 HQL       0.009200
     45 H132         4.2220    -3.1850     6.2690 h1         1 HQL       0.009200
     46 H141         3.0500    -2.7110     4.1890 hc         1 HQL       0.029450
     47 H142         1.5190    -3.2420     4.8980 hc         1 HQL       0.029450
     48 H16          4.3520     1.3600     2.9780 ha         1 HQL       0.112250
     49 H17          5.0360     3.6390     3.6990 ha         1 HQL       0.102250
     50 H18          3.6090     4.9180     5.2690 ha         1 HQL       0.102000
     51 H19          1.5020     3.9250     6.1190 ha         1 HQL       0.102250
     52 H20          0.8260     1.6460     5.3930 ha         1 HQL       0.112250
     53 H21         -0.5350     0.0010     3.3570 ha         1 HQL       0.112250
     54 H22         -1.7810     0.0010     1.2080 ha         1 HQL       0.102250
     55 HN1          1.2350    -7.6620    10.8460 hn         1 HQL       0.165700
@<TRIPOS>BOND
     1     1     2 ar  
     2     1    28 ar  
     3     1    29 1   
     4     2     3 ar  
     5     2    30 1   
     6     3     4 ar  
     7     3    31 1   
     8     4     5 1   
     9     4    27 ar  
    10     5     6 1   
    11     5    21 1   
    12     5    32 1   
    13     6     7 1   
    14     7     8 1   
    15     7    20 1   
    16     7    33 1   
    17     8     9 1   
    18     8    34 1   
    19     8    35 1   
    20     9    10 1   
    21     9    36 1   
    22     9    37 1   
    23    10    11 1   
    24    10    19 1   
    25    11    12 1   
    26    11    38 1   
    27    11    39 1   
    28    12    13 1   
    29    12    40 1   
    30    12    41 1   
    31    13    14 1   
    32    13    42 1   
    33    13    43 1   
    34    14    15 1   
    35    14    18 2   
    36    15    16 1   
    37    15    55 1   
    38    16    17 2   
    39    17    18 1   
    40    19    20 1   
    41    19    44 1   
    42    19    45 1   
    43    20    46 1   
    44    20    47 1   
    45    21    22 ar  
    46    21    26 ar  
    47    22    23 ar  
    48    22    48 1   
    49    23    24 ar  
    50    23    49 1   
    51    24    25 ar  
    52    24    50 1   
    53    25    26 ar  
    54    25    51 1   
    55    26    52 1   
    56    27    28 ar  
    57    27    53 1   
    58    28    54 1   
@<TRIPOS>SUBSTRUCTURE
     1 HQL         1 TEMP              0 ****  ****    0 ROOT
