@<TRIPOS>MOLECULE
molecule
   55    58     1     0     0
SMALL
bcc


@<TRIPOS>ATOM
      1 C1           0.0000     0.0000     0.0000 ca         1 HQL      -0.127000
      2 C2           1.3950     0.0000     0.0000 ca         1 HQL      -0.131250
      3 C3           2.0930     0.0000     1.2080 ca         1 HQL      -0.109500
      4 C4           1.3830     0.0000     2.3950 ca         1 HQL      -0.095300
      5 C5           2.1400     0.0010     3.7080 c3         1 HQL       0.227700
      6 O1           1.3830    -0.6670     4.7080 os         1 HQL      -0.405600
      7 C6           2.2230    -1.3570     5.6240 c3         1 HQL       0.142100
      8 C7           1.5640    -1.4100     7.0000 c3         1 HQL      -0.090400
      9 C8           2.3560    -2.2930     7.9620 c3         1 HQL       0.165300
     10 N1           2.5320    -3.6460     7.4140 n3         1 HQL      -0.717600
     11 C9           3.2500    -4.4940     8.3650 c3         1 HQL       0.163800
     12 C10          2.5240    -4.6230     9.7030 c3         1 HQL      -0.073400
     13 C11          1.1080    -5.2050     9.6040 c3         1 HQL      -0.111700
     14 C12          1.0620    -6.6080     9.0510 cc         1 HQL       0.393800
     15 N2           1.1420    -7.6800     9.8490 na         1 HQL      -0.178400
     16 N3           1.0760    -8.7810     9.0880 nc         1 HQL      -0.192800
     17 N4           0.9590    -8.3310     7.8450 nd         1 HQL      -0.063000
     18 N5           0.9510    -6.9550     7.8150 nd         1 HQL      -0.352000
     19 C13          3.2370    -3.6120     6.1240 c3         1 HQL       0.165300
     20 C14          2.4720    -2.7690     5.1040 c3         1 HQL      -0.090400
     21 C15          2.5550     1.3910     4.1490 ca         1 HQL      -0.095300
     22 C16          3.7340     1.9260     3.6640 ca         1 HQL      -0.109500
     23 C17          4.1150     3.2050     4.0700 ca         1 HQL      -0.131250
     24 C18          3.3120     3.9250     4.9540 ca         1 HQL      -0.127000
     25 C19          2.1260     3.3660     5.4330 ca         1 HQL      -0.131250
     26 C20          1.7450     2.0870     5.0260 ca         1 HQL      -0.109500
     27 C21         -0.0000     0.0000     2.4150 ca         1 HQL      -0.109500
     28 C22         -0.6980     0.0010     1.2080 ca         1 HQL      -0.131250
     29 H1          -0.5420     0.0000    -0.9380 ha         1 HQL       0.129000
     30 H2           1.9360    -0.0000    -0.9380 ha         1 HQL       0.130000
     31 H3           3.1760    -0.0000     1.2160 ha         1 HQL       0.138250
     32 H5           3.0470    -0.5720     3.5560 h1         1 HQL       0.040700
     33 H6           3.1710    -0.8380     5.7060 h1         1 HQL       0.036700
     34 H71          1.5110    -0.4060     7.4050 hc         1 HQL       0.058950
     35 H72          0.5630    -1.8100     6.8970 hc         1 HQL       0.058950
     36 H81          3.3300    -1.8500     8.1290 h1         1 HQL       0.034200
     37 H82          1.8230    -2.3590     8.9020 h1         1 HQL       0.034200
     38 H91          3.3670    -5.4810     7.9350 h1         1 HQL       0.039700
     39 H92          4.2310    -4.0700     8.5400 h1         1 HQL       0.039700
     40 H101         2.4590    -3.6390    10.1530 hc         1 HQL       0.044700
     41 H102         3.1120    -5.2600    10.3520 hc         1 HQL       0.044700
     42 H111         0.5140    -4.5630     8.9650 hc         1 HQL       0.071200
     43 H112         0.6670    -5.2100    10.5940 hc         1 HQL       0.071200
     44 H131         3.3340    -4.6220     5.7460 h1         1 HQL       0.034200
     45 H132         4.2220    -3.1850     6.2690 h1         1 HQL       0.034200
     46 H141         3.0500    -2.7110     4.1890 hc         1 HQL       0.058950
     47 H142         1.5190    -3.2420     4.8980 hc         1 HQL       0.058950
     48 H16          4.3520     1.3600     2.9780 ha         1 HQL       0.138250
     49 H17          5.0360     3.6390     3.6990 ha         1 HQL       0.130000
     50 H18          3.6090     4.9180     5.2690 ha         1 HQL       0.129000
     51 H19          1.5020     3.9250     6.1190 ha         1 HQL       0.130000
     52 H20          0.8260     1.6460     5.3930 ha         1 HQL       0.138250
     53 H21         -0.5350     0.0010     3.3570 ha         1 HQL       0.138250
     54 H22         -1.7810     0.0010     1.2080 ha         1 HQL       0.130000
     55 HN1          1.2350    -7.6620    10.8460 hn         1 HQL       0.331700
@<TRIPOS>BOND
     1     1     2 ar
     2     1    28 ar
     3     1    29 1
     4     2     3 ar
     5     2    30 1
     6     3     4 ar
     7     3    31 1
     8     4     5 1
     9     4    27 ar
    10     5     6 1
    11     5    21 1
    12     5    32 1
    13     6     7 1
    14     7     8 1
    15     7    20 1
    16     7    33 1
    17     8     9 1
    18     8    34 1
    19     8    35 1
    20     9    10 1
    21     9    36 1
    22     9    37 1
    23    10    11 1
    24    10    19 1
    25    11    12 1
    26    11    38 1
    27    11    39 1
    28    12    13 1
    29    12    40 1
    30    12    41 1
    31    13    14 1
    32    13    42 1
    33    13    43 1
    34    14    15 1
    35    14    18 2
    36    15    16 1
    37    16    17 2
    38    17    18 1
    39    19    20 1
    40    19    44 1
    41    19    45 1
    42    20    46 1
    43    20    47 1
    44    21    22 ar
    45    21    26 ar
    46    22    23 ar
    47    22    48 1
    48    23    24 ar
    49    23    49 1
    50    24    25 ar
    51    24    50 1
    52    25    26 ar
    53    25    51 1
    54    26    52 1
    55    27    28 ar
    56    27    53 1
    57    28    54 1
    58    55    15 1
@<TRIPOS>SUBSTRUCTURE
     1 HQL         1 TEMP              0 ****  ****    0 ROOT
