@<TRIPOS>MOLECULE
HQM
   70    73     1     0     0
SMALL
bcc


@<TRIPOS>ATOM
      1 C10          0.0000     0.0000     0.0000 c3         1 HQM       0.004900
      2 C11          2.0390     0.0000     1.4430 c3         1 HQM       0.004900
      3 C12          4.0510    -2.4580    -1.3180 c3         1 HQM       0.135500
      4 C13          5.5730    -2.3480    -1.4320 c3         1 HQM      -0.074400
      5 C14          6.1450    -3.6790    -1.9230 c3         1 HQM      -0.017400
      6 C15          5.5530    -4.0140    -3.2930 c3         1 HQM      -0.026400
      7 C16          4.0320    -4.1250    -3.1790 c3         1 HQM      -0.017400
      8 C17          3.4590    -2.7930    -2.6880 c3         1 HQM      -0.074400
      9 C19          5.6660     1.8980     0.7030 c          1 HQM       0.541100
     10 C21          6.7390     2.9810     2.5300 ca         1 HQM      -0.062400
     11 C22          6.0650     4.1850     2.3780 ca         1 HQM      -0.125000
     12 C23          6.5460     5.3260     2.9910 ca         1 HQM      -0.085500
     13 C24          7.6970     5.2700     3.7540 ca         1 HQM      -0.124300
     14 C25          8.3700     4.0710     3.9080 ca         1 HQM      -0.085500
     15 C01          4.6460     1.9440    -3.3630 ca         1 HQM       0.033700
     16 C02          5.1530     1.8760    -2.0780 ca         1 HQM      -0.106000
     17 C03          4.7750     0.8420    -1.2370 ca         1 HQM      -0.094400
     18 C04          3.8830    -0.1290    -1.6900 ca         1 HQM      -0.043400
     19 C05          3.3780    -0.0540    -2.9790 ca         1 HQM      -0.200000
     20 C06          3.7560     0.9850    -3.8100 ca         1 HQM       0.044000
     21 C08          2.0400    -1.2490    -0.7210 c3         1 HQM       0.143800
     22 C09          1.5300     0.0000     0.0000 c3         1 HQM      -0.065700
     23 C26          7.8940     2.9270     3.2980 ca         1 HQM      -0.125000
     24 C27          8.2200     6.5160     4.4210 c3         1 HQM       0.071200
     25 C29          5.0590     3.0700    -4.2760 cx         1 HQM      -0.075400
     26 C30          4.6270     2.9840    -5.7410 cx         1 HQM      -0.107400
     27 C31          3.9560     3.9900    -4.8040 cx         1 HQM      -0.141700
     28 C32          2.5420     3.7020    -4.3720 c          1 HQM       1.003600
     29 N07          3.5020    -1.1790    -0.8470 nh         1 HQM      -0.402000
     30 N20          6.2510     1.8230     1.9160 ns         1 HQM      -0.069100
     31 O28          5.4790     2.9820     0.1850 o          1 HQM      -0.671100
     32 O33          1.5360     4.4780    -4.8060 o          1 HQM      -0.884300
     33 O34          2.3130     2.7730    -3.6360 o          1 HQM      -0.884300
     34 H1          -0.3610     0.9020     0.4790 hc         1 HQM      -0.000967
     35 H2          -0.3610    -0.8660     0.5420 hc         1 HQM      -0.000967
     36 H3          -0.3610    -0.0370    -1.0210 hc         1 HQM      -0.000967
     37 H4           2.0540     1.0150     1.8210 hc         1 HQM      -0.000967
     38 H5           3.0410    -0.4100     1.4730 hc         1 HQM      -0.000967
     39 H6           1.3830    -0.6050     2.0580 hc         1 HQM      -0.000967
     40 H7           3.7990    -3.2440    -0.6170 h1         1 HQM       0.025700
     41 H8           5.8250    -1.5650    -2.1370 hc         1 HQM       0.037450
     42 H9           5.9900    -2.1130    -0.4600 hc         1 HQM       0.037450
     43 H10          7.2220    -3.5980    -2.0050 hc         1 HQM       0.005950
     44 H11          5.8890    -4.4620    -1.2190 hc         1 HQM       0.005950
     45 H12          5.9580    -4.9570    -3.6390 hc         1 HQM       0.011200
     46 H13          5.8050    -3.2280    -3.9960 hc         1 HQM       0.011200
     47 H14          3.6140    -4.3590    -4.1510 hc         1 HQM       0.005950
     48 H15          3.7800    -4.9070    -2.4740 hc         1 HQM       0.005950
     49 H16          3.7150    -2.0110    -3.3920 hc         1 HQM       0.037450
     50 H17          2.3820    -2.8740    -2.6060 hc         1 HQM       0.037450
     51 H18          5.1630     4.2310     1.7790 ha         1 HQM       0.129500
     52 H19          6.0210     6.2660     2.8720 ha         1 HQM       0.101000
     53 H20          9.2720     4.0300     4.5070 ha         1 HQM       0.101000
     54 H21          5.8780     2.6080    -1.7440 ha         1 HQM       0.141000
     55 H22          2.6450    -0.7770    -3.3160 ha         1 HQM       0.120000
     56 H23          3.4440     0.6410    -4.7890 ha         1 HQM       0.095000
     57 H24          1.5950    -1.3040    -1.7070 h1         1 HQM       0.012700
     58 H25          1.7690    -2.1300    -0.1520 h1         1 HQM       0.012700
     59 H26          1.8910     0.8850    -0.5110 hc         1 HQM       0.076700
     60 H27          8.4220     1.9890     3.4190 ha         1 HQM       0.129500
     61 H28          7.7980     7.3890     3.9370 hc         1 HQM       0.000700
     62 H29          9.3000     6.5440     4.3380 hc         1 HQM       0.000700
     63 H30          7.9380     6.5120     5.4670 hc         1 HQM       0.000700
     64 H31          6.0140     3.5540    -4.1120 hc         1 HQM       0.037700
     65 H32          5.3220     3.4040    -6.4590 hc         1 HQM       0.036200
     66 H33          4.0300     2.1190    -6.0030 hc         1 HQM       0.036200
     67 H34          4.2580     5.0200    -4.9540 hc         1 HQM       0.039700
     68 H35          5.3650    -0.1140     0.5260 hn         1 HQM       0.163500
     69 H36          6.4330     0.9280     2.3260 hn         1 HQM       0.154500
     70 N18          5.2890     0.7720     0.0650 ns         1 HQM      -0.027100
@<TRIPOS>BOND
     1     1    22 1   
     2     1    34 1   
     3     1    35 1   
     4     1    36 1   
     5     2    22 1   
     6     2    37 1   
     7     2    38 1   
     8     2    39 1   
     9     3     4 1   
    10     3     8 1   
    11     3    29 1   
    12     3    40 1   
    13     4     5 1   
    14     4    41 1   
    15     4    42 1   
    16     5     6 1   
    17     5    43 1   
    18     5    44 1   
    19     6     7 1   
    20     6    45 1   
    21     6    46 1   
    22     7     8 1   
    23     7    47 1   
    24     7    48 1   
    25     8    49 1   
    26     8    50 1   
    27     9    30 1   
    28     9    31 2   
    29     9    70 1   
    30    10    11 ar  
    31    10    23 ar  
    32    10    30 1   
    33    11    12 ar  
    34    11    51 1   
    35    12    13 ar  
    36    12    52 1   
    37    13    14 ar  
    38    13    24 1   
    39    14    23 ar  
    40    14    53 1   
    41    15    16 ar  
    42    15    20 ar  
    43    15    25 1   
    44    16    17 ar  
    45    16    54 1   
    46    17    18 ar  
    47    17    70 1   
    48    18    19 ar  
    49    18    29 1   
    50    19    20 ar  
    51    19    55 1   
    52    20    56 1   
    53    21    22 1   
    54    21    29 1   
    55    21    57 1   
    56    21    58 1   
    57    22    59 1   
    58    23    60 1   
    59    24    61 1   
    60    24    62 1   
    61    24    63 1   
    62    25    26 1   
    63    25    27 1   
    64    25    64 1   
    65    26    27 1   
    66    26    65 1   
    67    26    66 1   
    68    27    28 1   
    69    27    67 1   
    70    28    32 1   
    71    28    33 1   
    72    30    69 1   
    73    68    70 1   
@<TRIPOS>SUBSTRUCTURE
     1 HQM         1 TEMP              0 ****  ****    0 ROOT
