@<TRIPOS>MOLECULE
molecule
   70    73     1     0     0
SMALL
bcc


@<TRIPOS>ATOM
      1 C10          0.0000     0.0000     0.0000 c3         1 HQM      -0.083600
      2 C11          2.0390     0.0000     1.4430 c3         1 HQM      -0.083600
      3 C12          4.0510    -2.4580    -1.3180 c3         1 HQM       0.179500
      4 C13          5.5730    -2.3480    -1.4320 c3         1 HQM      -0.103900
      5 C14          6.1450    -3.6790    -1.9230 c3         1 HQM      -0.077400
      6 C15          5.5530    -4.0140    -3.2930 c3         1 HQM      -0.079400
      7 C16          4.0320    -4.1250    -3.1790 c3         1 HQM      -0.077400
      8 C17          3.4590    -2.7930    -2.6880 c3         1 HQM      -0.103900
      9 C19          5.6660     1.8980     0.7030 c          1 HQM       0.771100
     10 C21          6.7390     2.9810     2.5300 ca         1 HQM       0.080600
     11 C22          6.0650     4.1850     2.3780 ca         1 HQM      -0.147500
     12 C23          6.5460     5.3260     2.9910 ca         1 HQM      -0.113500
     13 C24          7.6970     5.2700     3.7540 ca         1 HQM      -0.115300
     14 C25          8.3700     4.0710     3.9080 ca         1 HQM      -0.113500
     15 C01          4.6460     1.9440    -3.3630 ca         1 HQM       0.028700
     16 C02          5.1530     1.8760    -2.0780 ca         1 HQM      -0.128000
     17 C03          4.7750     0.8420    -1.2370 ca         1 HQM       0.058600
     18 C04          3.8830    -0.1290    -1.6900 ca         1 HQM       0.024600
     19 C05          3.3780    -0.0540    -2.9790 ca         1 HQM      -0.200000
     20 C06          3.7560     0.9850    -3.8100 ca         1 HQM       0.000000
     21 C08          2.0400    -1.2490    -0.7210 c3         1 HQM       0.174800
     22 C09          1.5300     0.0000     0.0000 c3         1 HQM      -0.075700
     23 C26          7.8940     2.9270     3.2980 ca         1 HQM      -0.147500
     24 C27          8.2200     6.5160     4.4210 c3         1 HQM      -0.041800
     25 C29          5.0590     3.0700    -4.2760 cx         1 HQM      -0.106400
     26 C30          4.6270     2.9840    -5.7410 cx         1 HQM      -0.148400
     27 C31          3.9560     3.9900    -4.8040 cx         1 HQM      -0.166700
     28 C32          2.5420     3.7020    -4.3720 c          1 HQM       0.913600
     29 N07          3.5020    -1.1790    -0.8470 nh         1 HQM      -0.619000
     30 N20          6.2510     1.8230     1.9160 ns         1 HQM      -0.497100
     31 O28          5.4790     2.9820     0.1850 o          1 HQM      -0.624100
     32 O33          1.5360     4.4780    -4.8060 o          1 HQM      -0.832800
     33 O34          2.3130     2.7730    -3.6360 o          1 HQM      -0.832800
     34 H1          -0.3610     0.9020     0.4790 hc         1 HQM       0.028367
     35 H2          -0.3610    -0.8660     0.5420 hc         1 HQM       0.028367
     36 H3          -0.3610    -0.0370    -1.0210 hc         1 HQM       0.028367
     37 H4           2.0540     1.0150     1.8210 hc         1 HQM       0.028367
     38 H5           3.0410    -0.4100     1.4730 hc         1 HQM       0.028367
     39 H6           1.3830    -0.6050     2.0580 hc         1 HQM       0.028367
     40 H7           3.7990    -3.2440    -0.6170 h1         1 HQM       0.048700
     41 H8           5.8250    -1.5650    -2.1370 hc         1 HQM       0.056700
     42 H9           5.9900    -2.1130    -0.4600 hc         1 HQM       0.056700
     43 H10          7.2220    -3.5980    -2.0050 hc         1 HQM       0.032700
     44 H11          5.8890    -4.4620    -1.2190 hc         1 HQM       0.032700
     45 H12          5.9580    -4.9570    -3.6390 hc         1 HQM       0.037700
     46 H13          5.8050    -3.2280    -3.9960 hc         1 HQM       0.037700
     47 H14          3.6140    -4.3590    -4.1510 hc         1 HQM       0.032700
     48 H15          3.7800    -4.9070    -2.4740 hc         1 HQM       0.032700
     49 H16          3.7150    -2.0110    -3.3920 hc         1 HQM       0.056700
     50 H17          2.3820    -2.8740    -2.6060 hc         1 HQM       0.056700
     51 H18          5.1630     4.2310     1.7790 ha         1 HQM       0.151500
     52 H19          6.0210     6.2660     2.8720 ha         1 HQM       0.127000
     53 H20          9.2720     4.0300     4.5070 ha         1 HQM       0.127000
     54 H21          5.8780     2.6080    -1.7440 ha         1 HQM       0.157000
     55 H22          2.6450    -0.7770    -3.3160 ha         1 HQM       0.128000
     56 H23          3.4440     0.6410    -4.7890 ha         1 HQM       0.121000
     57 H24          1.5950    -1.3040    -1.7070 h1         1 HQM       0.030200
     58 H25          1.7690    -2.1300    -0.1520 h1         1 HQM       0.030200
     59 H26          1.8910     0.8850    -0.5110 hc         1 HQM       0.099700
     60 H27          8.4220     1.9890     3.4190 ha         1 HQM       0.151500
     61 H28          7.7980     7.3890     3.9370 hc         1 HQM       0.036367
     62 H29          9.3000     6.5440     4.3380 hc         1 HQM       0.036367
     63 H30          7.9380     6.5120     5.4670 hc         1 HQM       0.036367
     64 H31          6.0140     3.5540    -4.1120 hc         1 HQM       0.060700
     65 H32          5.3220     3.4040    -6.4590 hc         1 HQM       0.059700
     66 H33          4.0300     2.1190    -6.0030 hc         1 HQM       0.059700
     67 H34          4.2580     5.0200    -4.9540 hc         1 HQM       0.064700
     68 H35          5.3650    -0.1140     0.5260 hn         1 HQM       0.319500
     69 H36          6.4330     0.9280     2.3260 hn         1 HQM       0.310500
     70 N18          5.2890     0.7720     0.0650 ns         1 HQM      -0.468100
@<TRIPOS>BOND
     1     6     7 1
     2     6     5 1
     3     7     8 1
     4     5     4 1
     5     8     3 1
     6     4     3 1
     7    21    29 1
     8    21    22 1
     9     3    29 1
    10     1    22 1
    11    29    18 1
    12    22     2 1
    13    18    19 ar
    14    18    17 ar
    15    19    20 ar
    16    70    17 1
    17    70     9 1
    18    30     9 1
    19    30    10 1
    20    17    16 ar
    21     9    31 2
    22    10    23 ar
    23    10    11 ar
    24    23    14 ar
    25    11    12 ar
    26    20    15 ar
    27    14    13 ar
    28    12    13 ar
    29    13    24 1
    30    16    15 ar
    31    15    25 1
    32    33    28 1
    33    25    27 1
    34    25    26 1
    35    28    32 1
    36    28    27 1
    37    27    26 1
    38     1    34 1
    39     1    35 1
    40     1    36 1
    41     2    37 1
    42     2    38 1
    43     2    39 1
    44     3    40 1
    45     4    41 1
    46     4    42 1
    47     5    43 1
    48     5    44 1
    49     6    45 1
    50     6    46 1
    51     7    47 1
    52     7    48 1
    53     8    49 1
    54     8    50 1
    55    11    51 1
    56    12    52 1
    57    14    53 1
    58    16    54 1
    59    19    55 1
    60    20    56 1
    61    21    57 1
    62    21    58 1
    63    22    59 1
    64    23    60 1
    65    24    61 1
    66    24    62 1
    67    24    63 1
    68    25    64 1
    69    26    65 1
    70    26    66 1
    71    27    67 1
    72    70    68 1
    73    30    69 1
@<TRIPOS>SUBSTRUCTURE
     1 HQM         1 TEMP              0 ****  ****    0 ROOT
