@<TRIPOS>MOLECULE
HQN
   15    15     1     0     0
SMALL
bcc


@<TRIPOS>ATOM
      1 C1         -0.0150    0.2610    0.0460 ca        1 HQN     -0.270000
      2 O1          3.5000    0.0880    1.0750 oh        1 HQN     -0.476100
      3 C2          1.3820    0.2240   -0.0020 ca        1 HQN      0.140100
      4 O2          2.0890    0.2860   -1.1770 oh        1 HQN     -0.470100
      5 C3          2.1290    0.1190    1.1960 ca        1 HQN      0.066100
      6 O3         -2.0270    0.2230    1.4130 oh        1 HQN     -0.495100
      7 C4          1.4660    0.0520    2.4250 ca        1 HQN     -0.149000
      8 C5          0.0750    0.0880    2.4820 ca        1 HQN     -0.155000
      9 C6         -0.6560    0.1920    1.2900 ca        1 HQN      0.130100
     10 H1         -0.5980    0.3430   -0.8810 ha        1 HQN      0.138000
     11 HO1         3.8680    0.0150    1.9680 ho        1 HQN      0.414000
     12 HO2         1.4500    0.3550   -1.9020 ho        1 HQN      0.416000
     13 HO3        -2.4050    0.2960    0.5250 ho        1 HQN      0.419000
     14 H4          2.0480   -0.0300    3.3550 ha        1 HQN      0.140000
     15 H5         -0.4540    0.0350    3.4430 ha        1 HQN      0.154000
@<TRIPOS>BOND
     1    1    3 ar  
     2    1    9 ar  
     3    1   10 1   
     4    2    5 1   
     5    2   11 1   
     6    3    4 1   
     7    3    5 ar  
     8    4   12 1   
     9    5    7 ar  
    10    6    9 1   
    11    6   13 1   
    12    7    8 ar  
    13    7   14 1   
    14    8    9 ar  
    15    8   15 1   
@<TRIPOS>SUBSTRUCTURE
     1 HQN         1 TEMP              0 ****  ****    0 ROOT
