@<TRIPOS>MOLECULE
molecule
   15    15     1     0     0
SMALL
bcc


@<TRIPOS>ATOM
      1 C1           0.0000     0.0000     0.0000 ca         1 HQN      -0.182000
      2 O1           3.4400    -0.0010     1.2070 oh         1 HQN      -0.510100
      3 C2           1.3860     0.0000     0.0000 ca         1 HQN       0.105100
      4 O2           2.0660    -0.0000    -1.1770 oh         1 HQN      -0.508100
      5 C3           2.0800     0.0000     1.2060 ca         1 HQN       0.082100
      6 O3          -2.0520     0.0060     1.2040 oh         1 HQN      -0.519100
      7 C4           1.3850     0.0000     2.4040 ca         1 HQN      -0.141000
      8 C5           0.0020     0.0010     2.4030 ca         1 HQN      -0.147000
      9 C6          -0.6920     0.0060     1.2020 ca         1 HQN       0.110100
     10 H1          -0.5420    -0.0560    -0.9370 ha         1 HQN       0.153000
     11 HO1          3.7530    -0.8580     1.4460 ho         1 HQN       0.423000
     12 HO2          2.0250     0.8580    -1.5640 ho         1 HQN       0.424000
     13 HO3         -2.3660     0.8940     1.1520 ho         1 HQN       0.421000
     14 H4           1.9250    -0.0040     3.3430 ha         1 HQN       0.145000
     15 H5          -0.5390     0.0030     3.3410 ha         1 HQN       0.145000
@<TRIPOS>BOND
     1     9     1 ar
     2     1     3 ar
     3     1    10 1
     4     5     2 1
     5     2    11 1
     6     3     4 1
     7     3     5 ar
     8     4    12 1
     9     7     5 ar
    10     6     9 1
    11     6    13 1
    12     8     7 ar
    13     7    14 1
    14     9     8 ar
    15     8    15 1
@<TRIPOS>SUBSTRUCTURE
     1 HQN         1 TEMP              0 ****  ****    0 ROOT
