@<TRIPOS>MOLECULE
molecule
   40    41     1     0     0
SMALL
bcc


@<TRIPOS>ATOM
      1 C1           0.0000     0.0000     0.0000 ca         1 HQO       0.146100
      2 O1          -0.6990    -0.0010    -1.1630 oh         1 HQO      -0.503100
      3 C2           1.3820     0.0000     0.0000 ca         1 HQO      -0.205000
      4 C3           2.0710     0.0000     1.2080 ca         1 HQO      -0.021600
      5 N1           1.4450    -0.0030     2.3610 na         1 HQO       0.113600
      6 O4           2.2020    -0.0080     3.5580 o          1 HQO      -0.386000
      7 C5           0.1090     0.0030     2.4350 ca         1 HQO      -0.004300
      8 C6          -0.5480     0.0050     3.6770 ca         1 HQO      -0.087000
      9 C7          -1.9090     0.0040     3.7210 ca         1 HQO      -0.116000
     10 C8          -2.6660     0.0030     2.5530 ca         1 HQO      -0.119000
     11 C9          -2.0640     0.0030     1.3300 ca         1 HQO      -0.102000
     12 C10         -0.6630     0.0020     1.2480 ca         1 HQO      -0.073000
     13 C11          3.5780    -0.0000     1.1920 c3         1 HQO      -0.033100
     14 C12          5.6180     1.4360     1.0430 c3         1 HQO      -0.080400
     15 C13          4.0870     1.4360     1.0590 c3         1 HQO      -0.076400
     16 C14          6.1270     2.8720     0.9090 c3         1 HQO      -0.081400
     17 C15          7.6560     2.8700     0.8930 c3         1 HQO      -0.081400
     18 C16          8.1660     4.3080     0.7600 c3         1 HQO      -0.084400
     19 C17          9.6960     4.3060     0.7440 c3         1 HQO      -0.092100
     20 HO11        -0.4960    -0.7820    -1.6510 ho         1 HQO       0.431000
     21 HC2          1.9250     0.0030    -0.9370 ha         1 HQO       0.161000
     22 HC6          0.0260     0.0050     4.5960 ha         1 HQO       0.182000
     23 HC7         -2.4110     0.0040     4.6810 ha         1 HQO       0.141000
     24 HC8         -3.7470     0.0020     2.6160 ha         1 HQO       0.137000
     25 HC9         -2.6630     0.0020     0.4280 ha         1 HQO       0.153000
     26 H111         3.9300    -0.5870     0.3520 hc         1 HQO       0.074200
     27 H112         3.9490    -0.4310     2.1140 hc         1 HQO       0.074200
     28 H121         5.9700     0.8480     0.2030 hc         1 HQO       0.043200
     29 H122         5.9890     1.0060     1.9650 hc         1 HQO       0.043200
     30 H131         3.7350     2.0220     1.8990 hc         1 HQO       0.050200
     31 H132         3.7160     1.8670     0.1370 hc         1 HQO       0.050200
     32 H141         5.7750     3.4590     1.7490 hc         1 HQO       0.042200
     33 H142         5.7560     3.3020    -0.0130 hc         1 HQO       0.042200
     34 H151         8.0270     2.4390     1.8150 hc         1 HQO       0.041700
     35 H152         8.0080     2.2840     0.0530 hc         1 HQO       0.041700
     36 H161         7.7960     4.7390    -0.1620 hc         1 HQO       0.040200
     37 H162         7.8150     4.8950     1.6000 hc         1 HQO       0.040200
     38 H171        10.0570     5.3240     0.6500 hc         1 HQO       0.032367
     39 H172        10.0480     3.7190    -0.0960 hc         1 HQO       0.032367
     40 H173        10.0670     3.8760     1.6660 hc         1 HQO       0.032367
@<TRIPOS>BOND
     1     1     2 1
     2     1     3 ar
     3     1    12 ar
     4     2    20 1
     5     3     4 ar
     6     3    21 1
     7     4     5 1
     8     4    13 1
     9     5     6 1
    10     5     7 2
    11     7     8 ar
    12     7    12 ar
    13     8     9 ar
    14     8    22 1
    15     9    10 ar
    16     9    23 1
    17    10    11 ar
    18    10    24 1
    19    11    12 ar
    20    11    25 1
    21    13    15 1
    22    13    26 1
    23    13    27 1
    24    14    15 1
    25    14    16 1
    26    14    28 1
    27    14    29 1
    28    15    30 1
    29    15    31 1
    30    16    17 1
    31    16    32 1
    32    16    33 1
    33    17    18 1
    34    17    34 1
    35    17    35 1
    36    18    19 1
    37    18    36 1
    38    18    37 1
    39    19    38 1
    40    19    39 1
    41    19    40 1
@<TRIPOS>SUBSTRUCTURE
     1 HQO         1 TEMP              0 ****  ****    0 ROOT
