@<TRIPOS>MOLECULE
HQP
   45    49     1     0     0
SMALL
bcc


@<TRIPOS>ATOM
      1 CAL          0.0000     0.0000     0.0000 cx         1 HQP      -0.104400
      2 CAM          1.5010     0.0000     0.0000 cx         1 HQP      -0.104400
      3 CBB          0.7500     0.0000     1.3080 cx         1 HQP      -0.039400
      4 CAX          0.7500     1.2600     2.1650 cc         1 HQP      -0.201600
      5 CAK          1.8410     1.9490     2.6340 cd         1 HQP      -0.320300
      6 NAS         -0.3430     1.9340     2.6240 na         1 HQP       0.505400
      7 NAN         -0.0430     3.0170     3.3610 nc         1 HQP      -0.652800
      8 CAV          1.2650     2.9900     3.3420 cd         1 HQP       0.439200
      9 NAR          2.0860     3.9330     3.9840 nu         1 HQP      -0.453600
     10 C6           1.7950     5.0800     4.7640 ca         1 HQP       0.546200
     11 N1           0.6510     5.0550     5.4740 nb         1 HQP      -0.637000
     12 C5           2.6830     6.1510     4.7580 ca         1 HQP      -0.246600
     13 CAJ          3.8710     6.1530     4.0080 ca         1 HQP      -0.042000
     14 CAD          4.7160     7.2580     4.0460 ca         1 HQP      -0.159000
     15 CAC          4.3770     8.3550     4.8310 ca         1 HQP      -0.085000
     16 CAI          3.1930     8.3450     5.5740 ca         1 HQP      -0.187300
     17 C4           2.3280     7.2530     5.5540 ca         1 HQP       0.416600
     18 N3           1.1940     7.2610     6.2760 nb         1 HQP      -0.660000
     19 C2           0.4170     6.1630     6.1970 ca         1 HQP       0.767000
     20 NAQ         -0.7590     6.1770     6.9500 ne         1 HQP      -0.493700
     21 CAU         -1.8080     6.6500     6.3570 cf         1 HQP       0.436900
     22 CAG         -3.1290     6.7320     7.0270 cf         1 HQP      -0.208100
     23 CAE         -4.1930     7.2140     6.3750 c2         1 HQP      -0.168200
     24 CAT         -4.1620     7.7040     4.9560 c3         1 HQP       0.223800
     25 CAB         -5.1070     6.9130     4.1530 c1         1 HQP       0.191700
     26 NAA         -5.8370     6.2800     3.5100 n1         1 HQP      -0.381800
     27 CAF         -2.7990     7.6180     4.3340 c2         1 HQP      -0.168200
     28 CAH         -1.7160     7.1420     4.9590 cf         1 HQP      -0.208100
     29 HAL1        -0.6170     0.7640    -0.4560 hc         1 HQP       0.059450
     30 HAL2        -0.1980    -1.0480    -0.1930 hc         1 HQP       0.059450
     31 HAM1         1.7950    -0.9830    -0.3480 hc         1 HQP       0.059450
     32 HAM2         1.8680     1.0170    -0.0630 hc         1 HQP       0.059450
     33 HBB          0.9700    -1.0310     1.5570 hc         1 HQP       0.074700
     34 HAK          2.9080     1.7900     2.5330 ha         1 HQP       0.151000
     35 HAS         -1.2570     1.5270     2.6380 hn         1 HQP       0.134700
     36 HAR          2.9460     3.5590     4.3330 hn         1 HQP       0.271800
     37 HAJ          4.3990     5.6990     3.1780 ha         1 HQP       0.136000
     38 HAD          5.5780     7.6700     3.5350 ha         1 HQP       0.126000
     39 HAC          4.9030     9.2980     4.9130 ha         1 HQP       0.106000
     40 HAI          2.7550     9.1780     6.1110 ha         1 HQP       0.124000
     41 HAG         -2.8160     6.7590     8.0640 ha         1 HQP       0.135500
     42 HAH         -0.8390     7.6010     4.5190 ha         1 HQP       0.135500
     43 HAE         -5.0390     6.6120     6.6860 ha         1 HQP       0.150000
     44 HAF         -2.1660     7.4750     3.4660 ha         1 HQP       0.150000
     45 HAT         -4.4780     8.7400     4.9460 hc         1 HQP       0.062700
@<TRIPOS>BOND
     1     1     2 1   
     2     1     3 1   
     3     1    29 1   
     4     1    30 1   
     5     2     3 1   
     6     2    31 1   
     7     2    32 1   
     8     3     4 1   
     9     3    33 1   
    10     4     5 2   
    11     4     6 1   
    12     5     8 1   
    13     5    34 1   
    14     6     7 1   
    15     6    35 1   
    16     7     8 2   
    17     8     9 1   
    18     9    10 1   
    19     9    36 1   
    20    10    11 ar  
    21    10    12 ar  
    22    11    19 ar  
    23    12    13 ar  
    24    12    17 ar  
    25    13    14 ar  
    26    13    37 1   
    27    14    15 ar  
    28    14    38 1   
    29    15    16 ar  
    30    15    39 1   
    31    16    17 ar  
    32    16    40 1   
    33    17    18 ar  
    34    18    19 ar  
    35    19    20 1   
    36    20    21 2   
    37    21    22 1   
    38    21    28 1   
    39    22    23 2   
    40    22    41 1   
    41    23    24 1   
    42    23    43 1   
    43    24    25 1   
    44    24    27 1   
    45    24    45 1   
    46    25    26 3   
    47    27    28 2   
    48    27    44 1   
    49    28    42 1   
@<TRIPOS>SUBSTRUCTURE
     1 HQP         1 TEMP              0 ****  ****    0 ROOT
