@<TRIPOS>MOLECULE
molecule
   45    49     1     0     0
SMALL
bcc


@<TRIPOS>ATOM
      1 CAL          0.0000     0.0000     0.0000 cx         1 HQP      -0.175400
      2 CAM          1.5010     0.0000     0.0000 cx         1 HQP      -0.175400
      3 CBB          0.7500     0.0000     1.3080 cx         1 HQP      -0.180400
      4 CAX          0.7500     1.2600     2.1650 cc         1 HQP       0.039400
      5 CAK          1.8410     1.9490     2.6340 cd         1 HQP      -0.361300
      6 NAS         -0.3430     1.9340     2.6240 na         1 HQP      -0.055600
      7 NAN         -0.0430     3.0170     3.3610 nc         1 HQP      -0.470800
      8 CAV          1.2650     2.9900     3.3420 cd         1 HQP       0.572200
      9 NAR          2.0860     3.9330     3.9840 nu         1 HQP      -0.813600
     10 C6           1.7950     5.0800     4.7640 ca         1 HQP       0.678200
     11 N1           0.6510     5.0550     5.4740 nb         1 HQP      -0.710000
     12 C5           2.6830     6.1510     4.7580 ca         1 HQP      -0.312600
     13 CAJ          3.8710     6.1530     4.0080 ca         1 HQP      -0.097000
     14 CAD          4.7160     7.2580     4.0460 ca         1 HQP      -0.138000
     15 CAC          4.3770     8.3550     4.8310 ca         1 HQP      -0.091000
     16 CAI          3.1930     8.3450     5.5740 ca         1 HQP      -0.188300
     17 C4           2.3280     7.2530     5.5540 ca         1 HQP       0.465600
     18 N3           1.1940     7.2610     6.2760 nb         1 HQP      -0.737000
     19 C2           0.4170     6.1630     6.1970 ca         1 HQP       0.861000
     20 NAQ         -0.7590     6.1770     6.9500 ne         1 HQP      -0.593700
     21 CAU         -1.8080     6.6500     6.3570 cf         1 HQP       0.535900
     22 CAG         -3.1290     6.7320     7.0270 cf         1 HQP      -0.209100
     23 CAE         -4.1930     7.2140     6.3750 c2         1 HQP      -0.147200
     24 CAT         -4.1620     7.7040     4.9560 c3         1 HQP       0.063800
     25 CAB         -5.1070     6.9130     4.1530 c1         1 HQP       0.212700
     26 NAA         -5.8390     6.2880     3.5040 n1         1 HQP      -0.358800
     27 CAF         -2.7990     7.6180     4.3340 c2         1 HQP      -0.147200
     28 CAH         -1.7160     7.1420     4.9590 cf         1 HQP      -0.209100
     29 HAL1        -0.4670     0.9390    -0.2710 hc         1 HQP       0.088200
     30 HAL2        -0.4670    -0.9390    -0.2710 hc         1 HQP       0.088200
     31 HAM1         1.9680     0.9390    -0.2710 hc         1 HQP       0.088200
     32 HAM2         1.9680    -0.9390    -0.2710 hc         1 HQP       0.088200
     33 HBB          0.7500     1.0030     1.7170 hc         1 HQP       0.185700
     34 HAK          2.8790     1.6720     2.4930 ha         1 HQP       0.187000
     35 HAS         -1.2980     1.6680     2.4860 hn         1 HQP       0.336700
     36 HAR          2.8150     4.3900     3.4740 hn         1 HQP       0.411800
     37 HAJ          4.1460     5.2820     3.4270 ha         1 HQP       0.132000
     38 HAD          5.6320     7.2590     3.4680 ha         1 HQP       0.139000
     39 HAC          5.0290     9.2190     4.8660 ha         1 HQP       0.140000
     40 HAI          2.9290     9.2000     6.1840 ha         1 HQP       0.153000
     41 HAG         -3.1840     6.8910     8.0970 ha         1 HQP       0.157000
     42 HAH         -0.7460     7.2660     4.4930 ha         1 HQP       0.157000
     43 HAE         -5.1900     6.8990     6.6590 ha         1 HQP       0.144000
     44 HAF         -2.4870     8.3590     3.6080 ha         1 HQP       0.144000
     45 HAT         -4.4780     8.7400     4.9460 hc         1 HQP       0.100700
@<TRIPOS>BOND
     1     1     2 1
     2     1     3 1
     3     1    29 1
     4     1    30 1
     5     2     3 1
     6     2    31 1
     7     2    32 1
     8     3     4 1
     9     3    33 1
    10     4     5 2
    11     4     6 1
    12     5     8 1
    13     5    34 1
    14     6     7 1
    15     6    35 1
    16     7     8 2
    17     8     9 1
    18     9    10 1
    19     9    36 1
    20    10    11 ar
    21    10    12 ar
    22    11    19 ar
    23    12    13 ar
    24    12    17 ar
    25    13    14 ar
    26    13    37 1
    27    14    15 ar
    28    14    38 1
    29    15    16 ar
    30    15    39 1
    31    16    17 ar
    32    16    40 1
    33    17    18 ar
    34    18    19 ar
    35    19    20 1
    36    20    21 2
    37    21    22 1
    38    21    28 1
    39    22    23 2
    40    22    41 1
    41    23    24 1
    42    23    43 1
    43    24    45 1
    44    24    25 1
    45    24    27 1
    46    25    26 3
    47    27    28 2
    48    27    44 1
    49    28    42 1
@<TRIPOS>SUBSTRUCTURE
     1 HQP         1 TEMP              0 ****  ****    0 ROOT
