@<TRIPOS>MOLECULE
molecule
   37    39     1     0     0
SMALL
bcc


@<TRIPOS>ATOM
      1 N1           0.0000     0.0000     0.0000 ns         1 HQQ      -0.571500
      2 C2           1.3360     0.0000     0.0000 c          1 HQQ       0.817500
      3 O2           1.9000    -0.0010    -1.0750 o          1 HQQ      -0.637500
      4 N3           2.0990     0.0000     1.1000 ns         1 HQQ      -0.571500
      5 C4           1.5660     0.0000     2.3390 c          1 HQQ       0.714500
      6 O4           2.2690    -0.0000     3.3260 o          1 HQQ      -0.579000
      7 C5           0.0530     0.0010     2.4510 c3         1 HQQ      -0.170700
      8 C6          -0.7150     0.0010     1.1450 c          1 HQQ       0.714500
      9 O6          -1.9280     0.0010     1.1290 o          1 HQQ      -0.579000
     10 C7          -0.3650    -1.2350     3.2500 c3         1 HQQ      -0.073100
     11 C8          -0.3580     1.2220     3.2330 ca         1 HQQ      -0.101300
     12 C9          -1.6900     1.4290     3.5380 ca         1 HQQ      -0.100000
     13 C10         -2.0700     2.5470     4.2550 ca         1 HQQ      -0.138500
     14 C11         -1.1150     3.4620     4.6690 ca         1 HQQ       0.098100
     15 C12          0.2230     3.2520     4.3610 ca         1 HQQ      -0.138500
     16 C13          0.5980     2.1300     3.6490 ca         1 HQQ      -0.100000
     17 O11         -1.4860     4.5620     5.3740 os         1 HQQ      -0.219200
     18 C14         -1.6390     5.5710     4.4770 ca         1 HQQ       0.110100
     19 C15         -1.5290     5.3140     3.1180 ca         1 HQQ      -0.179000
     20 C16         -1.6850     6.3410     2.2090 ca         1 HQQ      -0.095500
     21 C17         -1.9520     7.6230     2.6500 ca         1 HQQ      -0.158000
     22 C18         -2.0610     7.8820     4.0040 ca         1 HQQ      -0.095500
     23 C19         -1.9110     6.8580     4.9180 ca         1 HQQ      -0.179000
     24 HN1         -0.4850    -0.0000    -0.8750 hn         1 HQQ       0.368500
     25 HN3          3.0950     0.0000     1.0000 hn         1 HQQ       0.368500
     26 H71         -1.4390    -1.3590     3.1870 hc         1 HQQ       0.061700
     27 H72          0.1250    -2.1110     2.8410 hc         1 HQQ       0.061700
     28 H73         -0.0750    -1.1100     4.2860 hc         1 HQQ       0.061700
     29 H9          -2.4370     0.7140     3.2150 ha         1 HQQ       0.157000
     30 H10         -3.1140     2.7080     4.4940 ha         1 HQQ       0.152000
     31 H12          0.9720     3.9630     4.6860 ha         1 HQQ       0.152000
     32 H13          1.6410     1.9650     3.4090 ha         1 HQQ       0.157000
     33 H15         -1.3200     4.3090     2.7710 ha         1 HQQ       0.146500
     34 H16         -1.6000     6.1410     1.1470 ha         1 HQQ       0.133500
     35 H17         -2.0720     8.4280     1.9340 ha         1 HQQ       0.131000
     36 H18         -2.2720     8.8880     4.3480 ha         1 HQQ       0.133500
     37 H19         -1.9970     7.0610     5.9780 ha         1 HQQ       0.146500
@<TRIPOS>BOND
     1     1     2 1
     2     1     8 1
     3     1    24 1
     4     2     3 2
     5     2     4 1
     6     4     5 1
     7     4    25 1
     8     5     6 2
     9     5     7 1
    10     7     8 1
    11     7    10 1
    12     7    11 1
    13     8     9 2
    14    10    26 1
    15    10    27 1
    16    10    28 1
    17    11    12 ar
    18    11    16 ar
    19    12    13 ar
    20    12    29 1
    21    13    14 ar
    22    13    30 1
    23    14    15 ar
    24    14    17 1
    25    15    16 ar
    26    15    31 1
    27    16    32 1
    28    17    18 1
    29    18    19 ar
    30    18    23 ar
    31    19    20 ar
    32    19    33 1
    33    20    21 ar
    34    20    34 1
    35    21    22 ar
    36    21    35 1
    37    22    23 ar
    38    22    36 1
    39    23    37 1
@<TRIPOS>SUBSTRUCTURE
     1 HQQ         1 TEMP              0 ****  ****    0 ROOT
