@<TRIPOS>MOLECULE
molecule
   19    20     1     0     0
SMALL
bcc


@<TRIPOS>ATOM
      1 S1           0.0000     0.0000     0.0000 s          1 HQT      -0.577400
      2 C1           1.7130     0.0000     0.0000 cs         1 HQT       0.453000
      3 C9           2.4530     0.0000     1.2640 ca         1 HQT      -0.104600
      4 C8           1.8060     0.0010     2.4990 ca         1 HQT      -0.056000
      5 C7           2.5520     0.0010     3.6570 ca         1 HQT      -0.141000
      6 C6           3.9400    -0.0000     3.6080 ca         1 HQT      -0.092000
      7 C5           4.6010    -0.0010     2.4000 ca         1 HQT      -0.134000
      8 C4           3.8660    -0.0010     1.2140 ca         1 HQT      -0.017800
      9 C3           4.5150    -0.0020    -0.1000 cc         1 HQT      -0.165200
     10 C2           3.7590    -0.0030    -1.2080 cd         1 HQT      -0.031400
     11 N1           2.3930    -0.0070    -1.1630 n          1 HQT      -0.128500
     12 O1           1.6690    -0.0080    -2.3800 oh         1 HQT      -0.341100
     13 H1           0.7240     0.0010     2.5480 ha         1 HQT       0.177000
     14 H2           2.0500     0.0010     4.6180 ha         1 HQT       0.141000
     15 H3           4.5090    -0.0000     4.5300 ha         1 HQT       0.136000
     16 H4           5.6840    -0.0020     2.3710 ha         1 HQT       0.139000
     17 H5           5.5960     0.0020    -0.1760 ha         1 HQT       0.159000
     18 H6           4.2490    -0.0080    -2.1740 h4         1 HQT       0.167000
     19 H7           1.5470    -0.8960    -2.6720 ho         1 HQT       0.418000
@<TRIPOS>BOND
     1    10     9 2
     2    10    11 1
     3     9     8 1
     4    12    11 1
     5    11     2 1
     6     8     7 ar
     7     8     3 ar
     8     7     6 ar
     9     2     3 1
    10     2     1 2
    11     3     4 ar
    12     6     5 ar
    13     4     5 ar
    14     4    13 1
    15     5    14 1
    16     6    15 1
    17     7    16 1
    18     9    17 1
    19    10    18 1
    20    12    19 1
@<TRIPOS>SUBSTRUCTURE
     1 HQT         1 TEMP              0 ****  ****    0 ROOT
