@<TRIPOS>MOLECULE
HQT
   19    20     1     0     0
SMALL
bcc


@<TRIPOS>ATOM
      1 S1           0.0000     0.0000     0.0000 s          1 HQT      -0.627400
      2 C1           1.7130     0.0000     0.0000 cs         1 HQT       0.251000
      3 C9           2.4530     0.0000     1.2640 ca         1 HQT      -0.086600
      4 C8           1.8060     0.0010     2.4990 ca         1 HQT      -0.036000
      5 C7           2.5520     0.0010     3.6570 ca         1 HQT      -0.106000
      6 C6           3.9400    -0.0000     3.6080 ca         1 HQT      -0.067000
      7 C5           4.6010    -0.0010     2.4000 ca         1 HQT      -0.100000
      8 C4           3.8660    -0.0010     1.2140 ca         1 HQT      -0.036800
      9 C3           4.5150    -0.0020    -0.1000 cc         1 HQT      -0.085200
     10 C2           3.7590    -0.0030    -1.2080 cd         1 HQT      -0.223400
     11 N1           2.3930    -0.0070    -1.1630 n          1 HQT       0.397500
     12 O1           1.6690    -0.0080    -2.3800 oh         1 HQT      -0.443100
     13 H1           0.7240     0.0010     2.5480 ha         1 HQT       0.153000
     14 H2           2.0500     0.0010     4.6180 ha         1 HQT       0.111000
     15 H3           4.5090    -0.0000     4.5300 ha         1 HQT       0.105000
     16 H4           5.6840    -0.0020     2.3710 ha         1 HQT       0.111000
     17 H5           5.5960     0.0020    -0.1760 ha         1 HQT       0.124000
     18 H6           4.2490    -0.0080    -2.1740 h4         1 HQT       0.141000
     19 H7           1.5470    -0.8960    -2.6720 ho         1 HQT       0.419000
@<TRIPOS>BOND
     1     1     2 2   
     2     2     3 1   
     3     2    11 1   
     4     3     4 ar  
     5     3     8 ar  
     6     4     5 ar  
     7     4    13 1   
     8     5     6 ar  
     9     5    14 1   
    10     6     7 ar  
    11     6    15 1   
    12     7     8 ar  
    13     7    16 1   
    14     8     9 1   
    15     9    10 2   
    16     9    17 1   
    17    10    11 1   
    18    10    18 1   
    19    11    12 1   
    20    12    19 1   
@<TRIPOS>SUBSTRUCTURE
     1 HQT         1 TEMP              0 ****  ****    0 ROOT
