@<TRIPOS>MOLECULE
molecule
   20    21     1     0     0
SMALL
bcc


@<TRIPOS>ATOM
      1 N1           0.0000     0.0000     0.0000 nb         1 HQU      -0.624000
      2 C2           1.3190     0.0000     0.0000 ca         1 HQU       0.414800
      3 C3           2.0520     0.0000     1.2020 ca         1 HQU       0.038800
      4 C4           1.3810     0.0110     2.4080 ca         1 HQU      -0.208000
      5 C5          -0.7720     0.0150     3.5730 ca         1 HQU      -0.121000
      6 C6          -2.1320     0.0150     3.5140 ca         1 HQU      -0.156000
      7 C7          -2.7950     0.0080     2.2880 ca         1 HQU      -0.165000
      8 C8          -2.1050     0.0030     1.1170 ca         1 HQU      -0.143300
      9 C9          -0.6960     0.0050     1.1330 ca         1 HQU       0.397600
     10 C10         -0.0240     0.0100     2.3840 ca         1 HQU      -0.134300
     11 C            2.0440    -0.0060    -1.2900 c          1 HQU       0.776100
     12 O1           3.2570    -0.0050    -1.3050 o          1 HQU      -0.804800
     13 O2           1.3560    -0.0110    -2.4480 o          1 HQU      -0.804800
     14 O3           3.4090    -0.0000     1.1740 oh         1 HQU      -0.460100
     15 H4           1.9220     0.0110     3.3470 ha         1 HQU       0.123000
     16 H5          -0.3900     0.0190     4.5870 ha         1 HQU       0.115000
     17 H6          -2.7350     0.0200     4.4140 ha         1 HQU       0.107000
     18 H7          -3.8780     0.0080     2.2850 ha         1 HQU       0.111000
     19 H8          -2.7140    -0.0010     0.2200 ha         1 HQU       0.140000
     20 HO3          3.7340    -0.7010     1.7140 ho         1 HQU       0.397000
@<TRIPOS>BOND
     1     1     2 ar
     2     1     9 ar
     3     2     3 ar
     4     2    11 1
     5     3     4 ar
     6     3    14 1
     7     4    10 ar
     8     4    15 1
     9     5     6 ar
    10     5    10 ar
    11     5    16 1
    12     6     7 ar
    13     6    17 1
    14     7     8 ar
    15     7    18 1
    16     8     9 ar
    17     8    19 1
    18     9    10 ar
    19    11    12 1
    20    11    13 1
    21    14    20 1
@<TRIPOS>SUBSTRUCTURE
     1 HQU         1 TEMP              0 ****  ****    0 ROOT
