@<TRIPOS>MOLECULE
HQU
   20    21     1     0     0
SMALL
bcc


@<TRIPOS>ATOM
      1 N1         -0.0380   -0.1540   -0.0670 nb        1 HQU     -0.652000
      2 C2          1.2760   -0.0790   -0.0730 ca        1 HQU      0.405800
      3 C3          2.0330    0.0550    1.1680 ca        1 HQU      0.045800
      4 C4          1.3790    0.1050    2.3790 ca        1 HQU     -0.247000
      5 C5         -0.7870    0.0700    3.5960 ca        1 HQU     -0.125000
      6 C6         -2.1610   -0.0110    3.5700 ca        1 HQU     -0.150000
      7 C7         -2.8390   -0.1390    2.3400 ca        1 HQU     -0.160000
      8 C8         -2.1450   -0.1850    1.1540 ca        1 HQU     -0.156300
      9 C9         -0.7190   -0.1050    1.1420 ca        1 HQU      0.377600
     10 C10        -0.0430    0.0250    2.3930 ca        1 HQU     -0.120300
     11 C           2.0660   -0.1310   -1.4160 c         1 HQU      0.843100
     12 O1          2.4160   -1.2700   -1.8060 o         1 HQU     -0.796300
     13 O2          2.2860    0.9720   -1.9700 o         1 HQU     -0.796300
     14 O3          3.3960    0.1250    1.0520 oh        1 HQU     -0.453100
     15 H4          1.9210    0.2050    3.3280 ha        1 HQU      0.116000
     16 H5         -0.2470    0.1700    4.5480 ha        1 HQU      0.114000
     17 H6         -2.7400    0.0240    4.5030 ha        1 HQU      0.110000
     18 H7         -3.9370   -0.2020    2.3410 ha        1 HQU      0.113000
     19 H8         -2.6780   -0.2860    0.1960 ha        1 HQU      0.140000
     20 HO3         3.7620    0.2100    1.9440 ho        1 HQU      0.393000
@<TRIPOS>BOND
     1    1    2 ar  
     2    1    9 ar  
     3    2    3 ar  
     4    2   11 1   
     5    3    4 ar  
     6    3   14 1   
     7    4   10 ar  
     8    4   15 1   
     9    5    6 ar  
    10    5   10 ar  
    11    5   16 1   
    12    6    7 ar  
    13    6   17 1   
    14    7    8 ar  
    15    7   18 1   
    16    8    9 ar  
    17    8   19 1   
    18    9   10 ar  
    19   11   12 1   
    20   11   13 1   
    21   14   20 1   
@<TRIPOS>SUBSTRUCTURE
     1 HQU         1 TEMP              0 ****  ****    0 ROOT
