@<TRIPOS>MOLECULE
HQY
   18    19     1     0     0
SMALL
bcc


@<TRIPOS>ATOM
      1 OAA        -0.1380   -0.1420   -0.1560 oh        1 HQY     -0.496100
      2 CAD         4.9690   -0.0720    0.0150 ca        1 HQY     -0.242300
      3 CAE         3.9130   -0.1350    0.9800 ca        1 HQY      0.412200
      4 CAF         4.6380   -0.0130   -1.3130 ca        1 HQY     -0.083000
      5 CAG         1.5320    0.0400   -3.3900 ca        1 HQY     -0.087000
      6 NAH         2.6300   -0.1400    0.6730 nb        1 HQY     -0.674000
      7 CAI         2.8670    0.0440   -3.0550 ca        1 HQY     -0.154000
      8 CAJ         0.8960   -0.0830   -1.0560 ca        1 HQY      0.095800
      9 CAK         0.5390   -0.0240   -2.3960 ca        1 HQY     -0.172000
     10 CAL         3.2640   -0.0150   -1.6980 ca        1 HQY     -0.112300
     11 CAM         2.2810   -0.0810   -0.6630 ca        1 HQY      0.330600
     12 HOAA        0.2220   -0.1800    0.7430 ho        1 HQY      0.445000
     13 HAE         4.1590   -0.1830    2.0570 h4        1 HQY      0.023100
     14 HAF         5.4080    0.0370   -2.0980 ha        1 HQY      0.141000
     15 HAG         1.2220    0.0860   -4.4450 ha        1 HQY      0.137000
     16 HAI         3.6430    0.0930   -3.8330 ha        1 HQY      0.136000
     17 HAK        -0.5250   -0.0260   -2.6730 ha        1 HQY      0.154000
     18 HAD         6.0120   -0.0720    0.3580 ha        1 HQY      0.146000
@<TRIPOS>BOND
     1    1    8 1   
     2    1   12 1   
     3    2    3 ar  
     4    2    4 ar  
     5    2   18 1   
     6    3    6 ar  
     7    3   13 1   
     8    4   10 ar  
     9    4   14 1   
    10    5    7 ar  
    11    5    9 ar  
    12    5   15 1   
    13    6   11 ar  
    14    7   10 ar  
    15    7   16 1   
    16    8    9 ar  
    17    8   11 ar  
    18    9   17 1   
    19   10   11 ar  
@<TRIPOS>SUBSTRUCTURE
     1 HQY         1 TEMP              0 ****  ****    0 ROOT
