@<TRIPOS>MOLECULE
molecule
   18    19     1     0     0
SMALL
bcc


@<TRIPOS>ATOM
      1 OAA          0.0000     0.0000     0.0000 oh         1 HQY      -0.499100
      2 CAD          4.9800     0.0000     0.0000 ca         1 HQY      -0.251300
      3 CAE          3.9790     0.0000     0.9670 ca         1 HQY       0.425200
      4 CAF          4.6480    -0.0010    -1.3250 ca         1 HQY      -0.083000
      5 CAG          1.5350     0.0010    -3.3020 ca         1 HQY      -0.110000
      6 NAH          2.7080    -0.0000     0.6450 nb         1 HQY      -0.659000
      7 CAI          2.8650     0.0010    -3.0090 ca         1 HQY      -0.123000
      8 CAJ          0.9470    -0.0000    -0.9740 ca         1 HQY       0.077800
      9 CAK          0.5790     0.0010    -2.2890 ca         1 HQY      -0.166000
     10 CAL          3.2830    -0.0000    -1.6680 ca         1 HQY      -0.142300
     11 CAM          2.3160    -0.0000    -0.6320 ca         1 HQY       0.398600
     12 HOAA        -0.4070    -0.8490     0.0430 ho         1 HQY       0.421000
     13 HAE          4.2580     0.0000     2.0140 h4         1 HQY       0.024100
     14 HAF          5.4140    -0.0010    -2.0910 ha         1 HQY       0.140000
     15 HAG          1.2160     0.0020    -4.3370 ha         1 HQY       0.134000
     16 HAI          3.5980     0.0010    -3.8060 ha         1 HQY       0.135000
     17 HAK         -0.4730     0.0010    -2.5480 ha         1 HQY       0.141000
     18 HAD          6.0220     0.0000     0.2980 ha         1 HQY       0.138000
@<TRIPOS>BOND
     1     1     8 1
     2     2     3 ar
     3     2     4 ar
     4     3     6 ar
     5     4    10 ar
     6     5     7 ar
     7     5     9 ar
     8     6    11 ar
     9     7    10 ar
    10     8     9 ar
    11     8    11 ar
    12    10    11 ar
    13     1    12 1
    14     2    18 1
    15     3    13 1
    16     4    14 1
    17     5    15 1
    18     7    16 1
    19     9    17 1
@<TRIPOS>SUBSTRUCTURE
     1 HQY         1 TEMP              0 ****  ****    0 ROOT
