@<TRIPOS>MOLECULE
molecule
   73    77     1     0     0
SMALL
bcc


@<TRIPOS>ATOM
      1 N1           0.0000     0.0000     0.0000 na         1 HR1       0.002900
      2 C4           5.9320    -1.1980    -3.3870 ca         1 HR1      -0.128500
      3 C5           0.5830    -0.0000     2.1430 cc         1 HR1      -0.134000
      4 C6          -0.8380     0.0010    -1.2020 c3         1 HR1       0.043000
      5 C7          -1.9230     0.0120     1.6650 c3         1 HR1      -0.022100
      6 C8          -2.4210    -1.4280     1.8020 c3         1 HR1      -0.097400
      7 C10         -4.3640    -2.8560     2.4580 c3         1 HR1      -0.097400
      8 C13         -0.5330     1.2470    -2.0360 c3         1 HR1      -0.105600
      9 C15         -0.0980     1.0990     5.6730 ca         1 HR1      -0.183500
     10 C17          5.0320     1.2030    -2.3390 ca         1 HR1      -0.109500
     11 C20          4.5750     0.0010    -1.8140 ca         1 HR1       0.047600
     12 C21          0.9740    -1.0920     4.3500 ca         1 HR1      -0.103000
     13 C22          5.0690    -0.0140     3.1630 ca         1 HR1      -0.160000
     14 C24          0.9020    -1.0840     5.7280 ca         1 HR1      -0.183500
     15 C26          5.0290    -1.2010    -2.3420 ca         1 HR1      -0.109500
     16 C28          5.9620    -0.0120     2.1010 ca         1 HR1      -0.105000
     17 O1           1.9790     0.0000    -2.1910 o          1 HR1      -0.655500
     18 C3           2.3450     0.0010    -1.0280 c          1 HR1       0.744100
     19 C2           1.3750     0.0000     0.0000 cd         1 HR1      -0.185900
     20 C14         -0.5440    -1.2520    -2.0290 c3         1 HR1      -0.105600
     21 C1           1.7930     0.0000     1.3300 cc         1 HR1      -0.048000
     22 C31          3.2340    -0.0040     1.6210 ca         1 HR1      -0.040000
     23 C25          3.7120    -0.0110     2.9310 ca         1 HR1      -0.085000
     24 C16          4.1370    -0.0040     0.5450 ca         1 HR1       0.067600
     25 C19          5.5040    -0.0070     0.8000 ca         1 HR1      -0.170000
     26 N2           3.6610     0.0010    -0.7550 n          1 HR1      -0.255200
     27 C23          6.3850     0.0010    -3.9080 ca         1 HR1      -0.124000
     28 C29          5.9350     1.2000    -3.3840 ca         1 HR1      -0.128500
     29 C27          0.5070     0.0030     3.6240 ca         1 HR1       0.021000
     30 C30          0.3670     0.0090     6.3900 ca         1 HR1       0.124900
     31 C18         -0.0300     1.1010     4.2950 ca         1 HR1      -0.103000
     32 F1           0.2980     0.0120     7.7390 f          1 HR1      -0.146900
     33 C12         -0.4690     0.0050     1.2730 cd         1 HR1      -0.036600
     34 C9          -3.8990    -1.4220     2.1990 c3         1 HR1       0.148100
     35 O4          -4.6740    -0.8530     1.1430 oh         1 HR1      -0.588800
     36 C11         -5.8030    -2.8410     2.9750 c3         1 HR1       0.168100
     37 O3          -6.6700    -2.3390     1.9550 oh         1 HR1      -0.609800
     38 C35         -6.2260    -4.2620     3.3510 c3         1 HR1      -0.204400
     39 C36         -7.5980    -4.2300     3.9750 c          1 HR1       0.899600
     40 O7          -8.1750    -5.3700     4.3850 o          1 HR1      -0.859800
     41 O6          -8.1770    -3.1780     4.1050 o          1 HR1      -0.859800
     42 H6          -1.8820     0.0060    -0.9130 h1         1 HR1       0.082700
     43 H71         -2.0400     0.5260     2.6120 hc         1 HR1       0.059200
     44 H72         -2.5000     0.5230     0.9040 hc         1 HR1       0.059200
     45 H81         -2.3050    -1.9420     0.8550 hc         1 HR1       0.055700
     46 H82         -1.8450    -1.9390     2.5630 hc         1 HR1       0.055700
     47 H101        -4.3180    -3.4230     1.5360 hc         1 HR1       0.051200
     48 H102        -3.7200    -3.3170     3.1970 hc         1 HR1       0.051200
     49 H131         0.0450     1.9460    -1.4430 hc         1 HR1       0.051867
     50 H132         0.0340     0.9640    -2.9140 hc         1 HR1       0.051867
     51 H133        -1.4620     1.7140    -2.3400 hc         1 HR1       0.051867
     52 H17          4.6800     2.1420    -1.9300 ha         1 HR1       0.143000
     53 H21          1.2070    -2.1490     4.3110 ha         1 HR1       0.152500
     54 H22          5.4420    -0.0180     4.1810 ha         1 HR1       0.129000
     55 H24          1.2320    -1.9250     6.3260 ha         1 HR1       0.142500
     56 H26          4.6740    -2.1400    -1.9340 ha         1 HR1       0.143000
     57 H28          7.0270    -0.0150     2.2950 ha         1 HR1       0.127000
     58 H141        -1.4770    -1.7090    -2.3360 hc         1 HR1       0.051867
     59 H142         0.0300    -0.9790    -2.9060 hc         1 HR1       0.051867
     60 H143         0.0220    -1.9550    -1.4310 hc         1 HR1       0.051867
     61 H25          3.0180    -0.0130     3.7630 ha         1 HR1       0.152000
     62 H19          6.2090    -0.0060    -0.0220 ha         1 HR1       0.140000
     63 H23          7.0930     0.0010    -4.7280 ha         1 HR1       0.128000
     64 H29          6.2910     2.1370    -3.7940 ha         1 HR1       0.131500
     65 H18         -0.3480     1.9740     3.7380 ha         1 HR1       0.152500
     66 H9          -4.0270    -0.8330     3.0990 h1         1 HR1       0.025700
     67 HO4         -5.0440    -0.0340     1.4300 ho         1 HR1       0.391000
     68 H11         -5.8660    -2.2030     3.8480 h1         1 HR1       0.029700
     69 HO3         -7.3240    -1.7830     2.3450 ho         1 HR1       0.413000
     70 H351        -5.5170    -4.6740     4.0590 hc         1 HR1       0.037700
     71 H352        -6.2480    -4.8790     2.4610 hc         1 HR1       0.037700
     72 H4           6.2860    -2.1350    -3.7980 ha         1 HR1       0.131500
     73 H15         -0.4660     1.9980     6.1530 ha         1 HR1       0.142500
@<TRIPOS>BOND
     1     1     4 1
     2     1    33 1
     3     1    19 1
     4     2    27 ar
     5     2    15 ar
     6     2    72 1
     7     3    33 2
     8     3    21 1
     9     3    29 1
    10     4     8 1
    11     4    20 1
    12     4    42 1
    13     5     6 1
    14     5    33 1
    15     5    43 1
    16     5    44 1
    17     6    34 1
    18     6    45 1
    19     6    46 1
    20     7    34 1
    21     7    36 1
    22     7    47 1
    23     7    48 1
    24     8    49 1
    25     8    50 1
    26     8    51 1
    27     9    31 ar
    28     9    30 ar
    29     9    73 1
    30    10    28 ar
    31    10    11 ar
    32    10    52 1
    33    11    15 ar
    34    11    26 1
    35    12    29 ar
    36    12    14 ar
    37    12    53 1
    38    13    23 ar
    39    13    16 ar
    40    13    54 1
    41    14    30 ar
    42    14    55 1
    43    15    56 1
    44    16    25 ar
    45    16    57 1
    46    17    18 2
    47    18    19 1
    48    18    26 1
    49    19    21 2
    50    20    58 1
    51    20    59 1
    52    20    60 1
    53    21    22 1
    54    22    24 ar
    55    22    23 ar
    56    23    61 1
    57    24    26 1
    58    24    25 ar
    59    25    62 1
    60    27    28 ar
    61    27    63 1
    62    28    64 1
    63    29    31 ar
    64    30    32 1
    65    31    65 1
    66    34    35 1
    67    34    66 1
    68    35    67 1
    69    36    38 1
    70    36    37 1
    71    36    68 1
    72    37    69 1
    73    38    39 1
    74    38    70 1
    75    38    71 1
    76    39    41 1
    77    39    40 1
@<TRIPOS>SUBSTRUCTURE
     1 HR1         1 TEMP              0 ****  ****    0 ROOT
