@<TRIPOS>MOLECULE
molecule
   72    75     1     0     0
SMALL
bcc


@<TRIPOS>ATOM
      1 N1           0.0000     0.0000     0.0000 na         1 HR2       0.006900
      2 C4           0.6340    -0.0020     2.1230 cc         1 HR2      -0.091300
      3 C5           1.7770     0.0000     1.2920 cc         1 HR2      -0.160000
      4 C6           0.6710     0.0140     3.6190 c3         1 HR2      -0.010100
      5 C7           5.8290     0.0050     2.5880 ca         1 HR2       0.122900
      6 C8           3.7030    -1.0900     2.4420 ca         1 HR2      -0.099500
      7 C10         -0.8480     0.0160    -1.1950 c3         1 HR2       0.013000
      8 C13         -1.8690    -0.0420     1.6650 c          1 HR2       0.751100
      9 C15          5.0180    -1.0850     2.8610 ca         1 HR2      -0.169000
     10 C17         -3.8130    -0.1860     2.8700 ca         1 HR2       0.056600
     11 C20          2.6410     1.4340    -1.5530 c3         1 HR2      -0.099400
     12 C21          3.4470     1.4450    -2.8540 c3         1 HR2       0.149100
     13 C22          3.9700     2.8590    -3.1190 c3         1 HR2      -0.100400
     14 C24          5.4970     4.2310    -4.5410 c3         1 HR2      -0.208400
     15 C28         -4.6070     0.9450     3.0200 ca         1 HR2      -0.116000
     16 F1           7.1160     0.0060     3.0000 f          1 HR2      -0.146900
     17 C9           3.1920     0.0020     1.7440 ca         1 HR2      -0.005000
     18 C14          4.0140     1.0910     1.4640 ca         1 HR2      -0.099500
     19 C18          5.3260     1.0910     1.8910 ca         1 HR2      -0.169000
     20 C3           1.3450     0.0000     0.0000 cd         1 HR2      -0.043600
     21 C19          2.2250    -0.0010    -1.2230 c3         1 HR2      -0.021100
     22 O33          2.6090     1.0370    -3.9370 oh         1 HR2      -0.597800
     23 C23          4.8770     2.8460    -4.3500 c3         1 HR2       0.167100
     24 O34          4.1070     2.5050    -5.5040 oh         1 HR2      -0.621800
     25 O27          6.6730     3.1520    -6.2760 o          1 HR2      -0.859300
     26 O26          7.1550     5.2940    -6.0290 o          1 HR2      -0.859300
     27 C12         -0.4330     1.1780    -2.1000 c3         1 HR2      -0.111600
     28 C11         -0.6870    -1.3040    -1.9520 c3         1 HR2      -0.111600
     29 C2          -0.4820    -0.7230     4.2460 c3         1 HR2      -0.099400
     30 C16         -1.7930     0.0080     4.1470 c3         1 HR2       0.110000
     31 N15         -2.4210    -0.0670     2.8550 n          1 HR2      -0.374000
     32 O14         -2.6460    -0.0450     0.7280 o          1 HR2      -0.678500
     33 C1          -0.4580    -0.0100     1.3090 cd         1 HR2      -0.183900
     34 C29         -5.9820     0.8240     3.0400 ca         1 HR2      -0.126000
     35 C30         -6.5710    -0.4210     2.9100 ca         1 HR2      -0.129000
     36 C31         -5.7840    -1.5480     2.7600 ca         1 HR2      -0.126000
     37 C32         -4.4080    -1.4350     2.7400 ca         1 HR2      -0.116000
     38 H61          0.6490     1.0440     3.9550 hc         1 HR2       0.053700
     39 H62          1.5960    -0.4450     3.9480 hc         1 HR2       0.053700
     40 H8           3.0690    -1.9430     2.6550 ha         1 HR2       0.144000
     41 H10         -1.8830     0.1390    -0.9010 h1         1 HR2       0.131700
     42 H15          5.4170    -1.9340     3.4040 ha         1 HR2       0.143000
     43 H201         1.7570     2.0490    -1.6710 hc         1 HR2       0.055700
     44 H202         3.2500     1.8280    -0.7480 hc         1 HR2       0.055700
     45 H21          4.2830     0.7610    -2.7670 h1         1 HR2       0.026700
     46 H221         4.5320     3.2020    -2.2600 hc         1 HR2       0.049700
     47 H222         3.1340     3.5250    -3.2930 hc         1 HR2       0.049700
     48 H241         4.7180     4.9480    -4.7670 hc         1 HR2       0.038700
     49 H242         6.0070     4.5260    -3.6320 hc         1 HR2       0.038700
     50 H28         -4.1470     1.9210     3.1220 ha         1 HR2       0.137500
     51 H14          3.6210     1.9410     0.9180 ha         1 HR2       0.144000
     52 H18          5.9650     1.9390     1.6770 ha         1 HR2       0.143000
     53 H191         3.1080    -0.5980    -1.0320 hc         1 HR2       0.062200
     54 H192         1.6800    -0.4200    -2.0600 hc         1 HR2       0.062200
     55 HO33         3.0320     0.3470    -4.4200 ho         1 HR2       0.401000
     56 H23          5.6630     2.1140    -4.2120 h1         1 HR2       0.029700
     57 HO34         4.6610     2.0760    -6.1360 ho         1 HR2       0.422000
     58 H121         0.3860     0.8660    -2.7370 hc         1 HR2       0.050367
     59 H122        -1.2750     1.4760    -2.7130 hc         1 HR2       0.050367
     60 H123        -0.1170     2.0150    -1.4900 hc         1 HR2       0.050367
     61 H111        -0.0450    -1.9690    -1.3870 hc         1 HR2       0.050367
     62 H112        -1.6580    -1.7650    -2.0840 hc         1 HR2       0.050367
     63 H113        -0.2440    -1.1120    -2.9220 hc         1 HR2       0.050367
     64 H21A        -0.5850    -1.6830     3.7540 hc         1 HR2       0.052700
     65 H22         -0.2570    -0.8870     5.2930 hc         1 HR2       0.052700
     66 H161        -2.4720    -0.4070     4.8820 h1         1 HR2       0.045200
     67 H162        -1.6200     1.0510     4.3820 h1         1 HR2       0.045200
     68 H29         -6.6010     1.7050     3.1570 ha         1 HR2       0.128500
     69 H30         -7.6500    -0.5120     2.9260 ha         1 HR2       0.126000
     70 H31         -6.2480    -2.5220     2.6590 ha         1 HR2       0.128500
     71 H32         -3.7930    -2.3190     2.6220 ha         1 HR2       0.137500
     72 C25          6.4850     4.1860    -5.6790 c          1 HR2       0.898600
@<TRIPOS>BOND
     1     1    33 1
     2     1     7 1
     3     1    20 1
     4     2     4 1
     5     2    33 2
     6     2     3 1
     7     3    17 1
     8     3    20 2
     9     4    29 1
    10     4    38 1
    11     4    39 1
    12     5     9 ar
    13     5    16 1
    14     5    19 ar
    15     6     9 ar
    16     6    17 ar
    17     6    40 1
    18     7    27 1
    19     7    28 1
    20     7    41 1
    21     8    31 1
    22     8    33 1
    23     8    32 2
    24     9    42 1
    25    10    15 ar
    26    10    37 ar
    27    10    31 1
    28    11    21 1
    29    11    12 1
    30    11    43 1
    31    11    44 1
    32    12    22 1
    33    12    13 1
    34    12    45 1
    35    13    23 1
    36    13    46 1
    37    13    47 1
    38    14    23 1
    39    14    72 1
    40    14    48 1
    41    14    49 1
    42    15    34 ar
    43    15    50 1
    44    17    18 ar
    45    18    19 ar
    46    18    51 1
    47    19    52 1
    48    20    21 1
    49    21    53 1
    50    21    54 1
    51    22    55 1
    52    23    24 1
    53    23    56 1
    54    24    57 1
    55    72    25 1
    56    72    26 1
    57    27    58 1
    58    27    59 1
    59    27    60 1
    60    28    61 1
    61    28    62 1
    62    28    63 1
    63    29    30 1
    64    29    64 1
    65    29    65 1
    66    30    31 1
    67    30    66 1
    68    30    67 1
    69    34    35 ar
    70    34    68 1
    71    35    36 ar
    72    35    69 1
    73    36    37 ar
    74    36    70 1
    75    37    71 1
@<TRIPOS>SUBSTRUCTURE
     1 HR2         1 TEMP              0 ****  ****    0 ROOT
