@<TRIPOS>MOLECULE
molecule
   48    52     1     0     0
SMALL
bcc


@<TRIPOS>ATOM
      1 F1           0.0000     0.0000     0.0000 f          1 HR4      -0.135900
      2 C13          1.3520     0.0000     0.0000 ca         1 HR4       0.146900
      3 C14          2.0440     0.0000     1.1990 ca         1 HR4      -0.166500
      4 C15          3.4260    -0.0050     1.1980 ca         1 HR4      -0.084500
      5 C12          2.0440    -0.0060    -1.1990 ca         1 HR4      -0.166500
      6 C11          3.4260    -0.0080    -1.1970 ca         1 HR4      -0.084500
      7 C10          4.1170    -0.0120     0.0010 ca         1 HR4      -0.113300
      8 C9           5.6230    -0.0180     0.0010 c3         1 HR4       0.058000
      9 S1           6.2200    -1.7260     0.0060 ss         1 HR4      -0.174300
     10 C8           7.9590    -1.4440     0.0050 cc         1 HR4       0.450700
     11 N7           8.5320    -0.2650     0.0020 nd         1 HR4      -0.586100
     12 C5           9.8800    -0.4190     0.0040 ca         1 HR4      -0.147200
     13 C6          10.9710     0.4650     0.0030 ca         1 HR4       0.776200
     14 N6          10.7730     1.8360    -0.0000 nv         1 HR4      -1.072500
     15 N1          12.1980    -0.0450     0.0040 nb         1 HR4      -0.765000
     16 C2          12.3960    -1.3500     0.0080 ca         1 HR4       0.708900
     17 N3          11.4040    -2.2150     0.0100 nb         1 HR4      -0.753000
     18 C4          10.1430    -1.7980     0.0080 ca         1 HR4       0.454800
     19 N9           8.9160    -2.4220     0.0140 na         1 HR4      -0.249000
     20 C1'          8.6790    -3.8680     0.0260 c3         1 HR4       0.244800
     21 C2'          8.2220    -4.3160     1.4370 c3         1 HR4       0.119100
     22 O2'          9.0920    -5.3270     1.9500 oh         1 HR4      -0.565800
     23 O4'          7.6100    -4.1990    -0.8950 os         1 HR4      -0.376600
     24 C4'          6.9260    -5.3000    -0.3020 c3         1 HR4       0.037100
     25 C3'          6.8170    -4.8800     1.1890 c3         1 HR4       0.103100
     26 O3'          6.5180    -6.0740     1.9200 os         1 HR4      -0.477200
     27 C5'          5.5390    -5.6040    -0.8320 c3         1 HR4       0.179400
     28 O5'          5.0790    -6.7910    -0.1430 os         1 HR4      -0.504200
     29 P            5.1720    -6.8840     1.4760 p5         1 HR4       1.315500
     30 S2           3.4640    -5.9860     2.3530 sh         1 HR4      -0.584200
     31 O2P          5.2730    -8.3000     1.8950 o          1 HR4      -0.674300
     32 H1           1.5020     0.0050     2.1370 ha         1 HR4       0.151000
     33 H2           3.9680    -0.0070     2.1360 ha         1 HR4       0.142500
     34 H3           1.5030    -0.0030    -2.1370 ha         1 HR4       0.151000
     35 H4           3.9690    -0.0130    -2.1350 ha         1 HR4       0.142500
     36 H5           5.9860     0.4890    -0.8850 h1         1 HR4       0.088700
     37 H6           5.9860     0.4940     0.8840 h1         1 HR4       0.088700
     38 H7          10.7150     2.3350     0.8650 hn         1 HR4       0.446300
     39 H8          10.7180     2.3320    -0.8680 hn         1 HR4       0.446300
     40 H9          13.4130    -1.7230     0.0090 h5         1 HR4       0.067100
     41 H10          9.5820    -4.3980    -0.2540 h2         1 HR4       0.127700
     42 H11          8.1770    -3.4670     2.1070 h1         1 HR4       0.075700
     43 H12          9.3650    -5.0940     2.8220 ho         1 HR4       0.423000
     44 H13          7.5410    -6.1890    -0.3800 h1         1 HR4       0.093700
     45 H14          6.0540    -4.1240     1.3300 h1         1 HR4       0.090700
     46 H15          4.8740    -4.7750    -0.6230 h1         1 HR4       0.085700
     47 H16          5.5840    -5.7900    -1.8980 h1         1 HR4       0.085700
     48 H17          2.8240    -6.8820     3.0940 hs         1 HR4       0.382800
@<TRIPOS>BOND
     1    31    29 2
     2    28    27 1
     3    28    29 1
     4    27    24 1
     5    29    26 1
     6    29    30 1
     7    24    23 1
     8    24    25 1
     9    26    25 1
    10    23    20 1
    11    25    21 1
    12    22    21 1
    13    20    21 1
    14    20    19 1
    15    17    18 ar
    16    17    16 ar
    17    19    18 1
    18    19    10 1
    19    18    12 ar
    20    16    15 ar
    21     9    10 1
    22     9     8 1
    23    10    11 2
    24    15    13 ar
    25    12    11 1
    26    12    13 ar
    27    13    14 1
    28     8     7 1
    29     4     7 ar
    30     4     3 ar
    31     7     6 ar
    32     3     2 ar
    33     6     5 ar
    34     2     5 ar
    35     2     1 1
    36     3    32 1
    37     4    33 1
    38     5    34 1
    39     6    35 1
    40     8    36 1
    41     8    37 1
    42    14    38 1
    43    14    39 1
    44    16    40 1
    45    20    41 1
    46    21    42 1
    47    22    43 1
    48    24    44 1
    49    25    45 1
    50    27    46 1
    51    27    47 1
    52    30    48 1
@<TRIPOS>SUBSTRUCTURE
     1 HR4         1 TEMP              0 ****  ****    0 ROOT
