@<TRIPOS>MOLECULE
HR4
   48    52     1     0     0
SMALL
bcc


@<TRIPOS>ATOM
      1 F1           0.0000     0.0000     0.0000 f          1 HR4      -0.125900
      2 C13          1.3520     0.0000     0.0000 ca         1 HR4       0.115900
      3 C14          2.0440     0.0000     1.1990 ca         1 HR4      -0.131000
      4 C15          3.4260    -0.0050     1.1980 ca         1 HR4      -0.055500
      5 C12          2.0440    -0.0060    -1.1990 ca         1 HR4      -0.131000
      6 C11          3.4260    -0.0080    -1.1970 ca         1 HR4      -0.055500
      7 C10          4.1170    -0.0120     0.0010 ca         1 HR4      -0.112300
      8 C9           5.6230    -0.0180     0.0010 c3         1 HR4       0.165000
      9 S1           6.2200    -1.7260     0.0060 ss         1 HR4      -0.283300
     10 C8           7.9590    -1.4440     0.0050 cc         1 HR4       0.282700
     11 N7           8.5320    -0.2650     0.0020 nd         1 HR4      -0.503100
     12 C5           9.8800    -0.4190     0.0040 ca         1 HR4      -0.172200
     13 C6          10.9710     0.4650     0.0030 ca         1 HR4       0.598200
     14 N6          10.7730     1.8360    -0.0000 nv         1 HR4      -0.645500
     15 N1          12.1980    -0.0450     0.0040 nb         1 HR4      -0.651000
     16 C2          12.3960    -1.3500     0.0080 ca         1 HR4       0.643900
     17 N3          11.4040    -2.2150     0.0100 nb         1 HR4      -0.614000
     18 C4          10.1430    -1.7980     0.0080 ca         1 HR4       0.235800
     19 N9           8.9160    -2.4220     0.0140 na         1 HR4       0.228000
     20 C1'          8.6790    -3.8680     0.0260 c3         1 HR4       0.131800
     21 C2'          8.2220    -4.3160     1.4370 c3         1 HR4       0.146100
     22 O2'          9.0920    -5.3270     1.9500 oh         1 HR4      -0.549800
     23 O4'          7.6100    -4.1990    -0.8950 os         1 HR4      -0.365600
     24 C4'          6.9260    -5.3000    -0.3020 c3         1 HR4       0.070100
     25 C3'          6.8170    -4.8800     1.1890 c3         1 HR4       0.153100
     26 O3'          6.5180    -6.0740     1.9200 os         1 HR4      -0.392200
     27 C5'          5.5390    -5.6040    -0.8320 c3         1 HR4       0.271400
     28 O5'          5.0790    -6.7910    -0.1430 os         1 HR4      -0.419200
     29 P            5.1720    -6.8840     1.4760 p5         1 HR4       0.922500
     30 S2           3.4640    -5.9860     2.3530 sh         1 HR4      -0.288200
     31 O2P          5.2730    -8.3000     1.8950 o          1 HR4      -0.536300
     32 H1           1.5020     0.0050     2.1370 ha         1 HR4       0.122500
     33 H2           3.9680    -0.0070     2.1360 ha         1 HR4       0.114000
     34 H3           1.5030    -0.0030    -2.1370 ha         1 HR4       0.122500
     35 H4           3.9690    -0.0130    -2.1350 ha         1 HR4       0.114000
     36 H5           5.9860     0.4890    -0.8850 h1         1 HR4       0.056200
     37 H6           5.9860     0.4940     0.8840 h1         1 HR4       0.056200
     38 H7          10.7150     2.3350     0.8650 hn         1 HR4       0.283300
     39 H8          10.7180     2.3320    -0.8680 hn         1 HR4       0.283300
     40 H9          13.4130    -1.7230     0.0090 h5         1 HR4       0.002100
     41 H10          9.5820    -4.3980    -0.2540 h2         1 HR4       0.079700
     42 H11          8.1770    -3.4670     2.1070 h1         1 HR4       0.027700
     43 H12          9.3650    -5.0940     2.8220 ho         1 HR4       0.403000
     44 H13          7.5410    -6.1890    -0.3800 h1         1 HR4       0.056700
     45 H14          6.0540    -4.1240     1.3300 h1         1 HR4       0.055700
     46 H15          4.8740    -4.7750    -0.6230 h1         1 HR4       0.023700
     47 H16          5.5840    -5.7900    -1.8980 h1         1 HR4       0.023700
     48 H17          2.8240    -6.8820     3.0940 hs         1 HR4       0.241800
@<TRIPOS>BOND
     1     1     2 1   
     2     2     3 ar  
     3     2     5 ar  
     4     3     4 ar  
     5     3    32 1   
     6     4     7 ar  
     7     4    33 1   
     8     5     6 ar  
     9     5    34 1   
    10     6     7 ar  
    11     6    35 1   
    12     7     8 1   
    13     8     9 1   
    14     8    36 1   
    15     8    37 1   
    16     9    10 1   
    17    10    11 2   
    18    10    19 1   
    19    11    12 1   
    20    12    13 ar  
    21    12    18 ar  
    22    13    14 1   
    23    13    15 ar  
    24    14    38 1   
    25    14    39 1   
    26    15    16 ar  
    27    16    17 ar  
    28    16    40 1   
    29    17    18 ar  
    30    18    19 1   
    31    19    20 1   
    32    20    21 1   
    33    20    23 1   
    34    20    41 1   
    35    21    22 1   
    36    21    25 1   
    37    21    42 1   
    38    22    43 1   
    39    23    24 1   
    40    24    25 1   
    41    24    27 1   
    42    24    44 1   
    43    25    26 1   
    44    25    45 1   
    45    26    29 1   
    46    27    28 1   
    47    27    46 1   
    48    27    47 1   
    49    28    29 1   
    50    29    30 1   
    51    29    31 2   
    52    30    48 1   
@<TRIPOS>SUBSTRUCTURE
     1 HR4         1 TEMP              0 ****  ****    0 ROOT
