@<TRIPOS>MOLECULE
HR5
   32    33     1     0     0
SMALL
bcc


@<TRIPOS>ATOM
      1 N1           0.0000     0.0000     0.0000 na         1 HR5       0.504400
      2 C4          -0.8570     0.0000    -1.1880 c3         1 HR5       0.017600
      3 C5           0.7070     0.0110     3.5570 c          1 HR5       0.643700
      4 C6           1.8940     0.0100     5.6850 c3         1 HR5       0.064000
      5 C7           3.3410     0.0030     6.1820 cy         1 HR5      -0.093700
      6 C8           3.4680     0.0910     7.7110 cy         1 HR5      -0.037400
      7 C10          3.9500    -1.4060     6.2880 cy         1 HR5      -0.037400
      8 O           -0.3400     0.0190     4.1750 o          1 HR5      -0.672100
      9 N2           1.8810     0.0070     4.2200 ns         1 HR5      -0.199900
     10 C9           4.6080    -0.9340     7.5980 cy         1 HR5      -0.043400
     11 C2           0.6930     0.0090     2.0830 cc         1 HR5      -0.405900
     12 C3           1.8230     0.0000     1.2340 cc         1 HR5       0.418200
     13 N            1.3990     0.0000     0.0000 nd         1 HR5      -0.659800
     14 C1          -0.4250     0.0050     1.2740 cd         1 HR5      -0.160600
     15 C           -1.8600     0.0070     1.7350 c3         1 HR5       0.089200
     16 H1          -1.4810     0.8860    -1.1830 h1         1 HR5       0.024367
     17 H2          -0.2390    -0.0010    -2.0780 h1         1 HR5       0.024367
     18 H3          -1.4830    -0.8830    -1.1820 h1         1 HR5       0.024367
     19 H4           1.3920     0.8980     6.0490 h1         1 HR5       0.027700
     20 H5           1.3820    -0.8710     6.0530 h1         1 HR5       0.027700
     21 H6           3.9910     0.7010     5.6680 hc         1 HR5       0.045700
     22 H7           2.6000    -0.2960     8.2310 hc         1 HR5       0.026950
     23 H8           3.8030     1.0630     8.0540 hc         1 HR5       0.026950
     24 H9           4.6680    -1.6180     5.5050 hc         1 HR5       0.026950
     25 H10          3.2060    -2.1780     6.4420 hc         1 HR5       0.026950
     26 H11          2.7430     0.0360     3.7120 hn         1 HR5       0.175500
     27 H12          5.5770    -0.4740     7.4430 hc         1 HR5       0.024200
     28 H13          4.5830    -1.6840     8.3790 hc         1 HR5       0.024200
     29 H14          2.8580     0.0000     1.5510 h4         1 HR5       0.000100
     30 H15         -2.0460    -0.8730     2.3400 hc         1 HR5       0.021700
     31 H16         -2.5170    -0.0020     0.8730 hc         1 HR5       0.021700
     32 H17         -2.0500     0.8960     2.3240 hc         1 HR5       0.021700
@<TRIPOS>BOND
     1     1     2 1   
     2     1    13 1   
     3     1    14 1   
     4     2    16 1   
     5     2    17 1   
     6     2    18 1   
     7     3     8 2   
     8     3     9 1   
     9     3    11 1   
    10     4     5 1   
    11     4     9 1   
    12     4    19 1   
    13     4    20 1   
    14     5     6 1   
    15     5     7 1   
    16     5    21 1   
    17     6    10 1   
    18     6    22 1   
    19     6    23 1   
    20     7    10 1   
    21     7    24 1   
    22     7    25 1   
    23     9    26 1   
    24    10    27 1   
    25    10    28 1   
    26    11    12 1   
    27    11    14 2   
    28    12    13 2   
    29    12    29 1   
    30    14    15 1   
    31    15    30 1   
    32    15    31 1   
    33    15    32 1   
@<TRIPOS>SUBSTRUCTURE
     1 HR5         1 TEMP              0 ****  ****    0 ROOT
