@<TRIPOS>MOLECULE
HR6
   48    52     1     0     0
SMALL
bcc


@<TRIPOS>ATOM
      1 S1P          0.0000     0.0000     0.0000 sh         1 HR6      -0.294200
      2 P            2.1200     0.0000     0.0000 p5         1 HR6       0.924500
      3 O2P          2.6250     1.1870    -0.7240 o          1 HR6      -0.538300
      4 O5'          2.6750     0.0000     1.5260 os         1 HR6      -0.417200
      5 C5'          2.8230    -1.2480     2.2460 c3         1 HR6       0.257400
      6 O3'          2.6770    -1.3610    -0.7060 os         1 HR6      -0.390200
      7 C3'          2.7080    -2.5400     0.1060 c3         1 HR6       0.114100
      8 C2'          3.5480    -3.6860    -0.4890 c3         1 HR6       0.151100
      9 O2'          4.6410    -3.1770    -1.2560 oh         1 HR6      -0.549800
     10 C4'          3.5860    -2.1900     1.3380 c3         1 HR6       0.072100
     11 O4'          3.9720    -3.4430     1.8760 os         1 HR6      -0.363600
     12 C1'          4.0520    -4.3970     0.7950 c3         1 HR6       0.132800
     13 N9           3.2030    -5.5540     1.0900 na         1 HR6       0.218000
     14 C4           3.5290    -6.8760     0.8920 ca         1 HR6       0.241800
     15 N3           4.5940    -7.5150     0.4210 nb         1 HR6      -0.623000
     16 C2           4.6100    -8.8310     0.3510 ca         1 HR6       0.648900
     17 N1           3.5890    -9.5730     0.7370 nb         1 HR6      -0.655000
     18 C6           2.4820    -9.0200     1.2210 ca         1 HR6       0.598200
     19 N6           1.4150    -9.8080     1.6250 nv         1 HR6      -0.633500
     20 C5           2.4160    -7.6210     1.3160 ca         1 HR6      -0.178200
     21 N7           1.4790    -6.7390     1.7450 nc         1 HR6      -0.497100
     22 C8           1.9400    -5.5190     1.6190 cd         1 HR6       0.276700
     23 S2           1.0660    -4.0540     2.0590 ss         1 HR6      -0.281300
     24 C9          -0.4770    -4.7800     2.6670 c3         1 HR6       0.163000
     25 C10         -1.4070    -3.6810     3.1120 ca         1 HR6      -0.105300
     26 C15         -1.3710    -3.2300     4.4180 ca         1 HR6      -0.080500
     27 C14         -2.2240    -2.2220     4.8270 ca         1 HR6      -0.096500
     28 C11         -2.2950    -3.1200     2.2130 ca         1 HR6      -0.080500
     29 C12         -3.1490    -2.1130     2.6210 ca         1 HR6      -0.096500
     30 C13         -3.1150    -1.6660     3.9280 ca         1 HR6      -0.088000
     31 H1          -0.4430     1.0720    -0.6460 hs         1 HR6       0.239800
     32 H2           3.3820    -1.0820     3.1590 h1         1 HR6       0.030700
     33 H3           1.8480    -1.6610     2.4720 h1         1 HR6       0.030700
     34 H4           1.7170    -2.8670     0.3960 h1         1 HR6       0.089700
     35 H5           2.9280    -4.3510    -1.0790 h1         1 HR6       0.027700
     36 H6           4.6020    -3.5280    -2.1310 ho         1 HR6       0.402000
     37 H7           4.4760    -1.6790     0.9900 h1         1 HR6       0.056700
     38 H8           5.0790    -4.7130     0.6600 h2         1 HR6       0.080700
     39 H9           5.4940    -9.3220    -0.0370 h5         1 HR6       0.001100
     40 H10          1.2630    -9.9840     2.5990 hn         1 HR6       0.283300
     41 H11          0.7970   -10.2020     0.9430 hn         1 HR6       0.283300
     42 H12         -0.9450    -5.3500     1.8740 h1         1 HR6       0.055700
     43 H13         -0.2640    -5.4330     3.5040 h1         1 HR6       0.055700
     44 H14         -0.6720    -3.6670     5.1210 ha         1 HR6       0.109500
     45 H15         -2.1960    -1.8700     5.8510 ha         1 HR6       0.106000
     46 H16         -2.3230    -3.4710     1.1880 ha         1 HR6       0.109500
     47 H17         -3.8460    -1.6760     1.9160 ha         1 HR6       0.106000
     48 H18         -3.7840    -0.8760     4.2470 ha         1 HR6       0.104000
@<TRIPOS>BOND
     1     1     2 1   
     2     1    31 1   
     3     2     3 2   
     4     2     4 1   
     5     2     6 1   
     6     4     5 1   
     7     5    10 1   
     8     5    32 1   
     9     5    33 1   
    10     6     7 1   
    11     7     8 1   
    12     7    10 1   
    13     7    34 1   
    14     8     9 1   
    15     8    12 1   
    16     8    35 1   
    17     9    36 1   
    18    10    11 1   
    19    10    37 1   
    20    11    12 1   
    21    12    13 1   
    22    12    38 1   
    23    13    14 1   
    24    13    22 1   
    25    14    15 ar  
    26    14    20 ar  
    27    15    16 ar  
    28    16    17 ar  
    29    16    39 1   
    30    17    18 ar  
    31    18    19 1   
    32    18    20 ar  
    33    19    40 1   
    34    19    41 1   
    35    20    21 1   
    36    21    22 2   
    37    22    23 1   
    38    23    24 1   
    39    24    25 1   
    40    24    42 1   
    41    24    43 1   
    42    25    26 ar  
    43    25    28 ar  
    44    26    27 ar  
    45    26    44 1   
    46    27    30 ar  
    47    27    45 1   
    48    28    29 ar  
    49    28    46 1   
    50    29    30 ar  
    51    29    47 1   
    52    30    48 1   
@<TRIPOS>SUBSTRUCTURE
     1 HR6         1 TEMP              0 ****  ****    0 ROOT
