@<TRIPOS>MOLECULE
molecule
   32    32     1     0     0
SMALL
bcc


@<TRIPOS>ATOM
      1 N1           0.0000     0.0000     0.0000 ns         1 HR8      -0.587900
      2 C4           3.4720     0.0010    -3.6800 ca         1 HR8      -0.060000
      3 C5           2.0860     0.0010    -3.6800 ca         1 HR8      -0.023600
      4 C6           1.3910     0.0000    -2.4900 ca         1 HR8      -0.064000
      5 C7           2.0860     0.0010    -1.2770 ca         1 HR8      -0.173600
      6 C8           1.3470     0.0000     0.0000 c          1 HR8       0.674700
      7 C10         -2.2370     0.0050     0.9900 c3         1 HR8      -0.096700
      8 C1           5.5980    -0.0000    -0.1950 c3         1 HR8       0.119700
      9 C2           3.4870     0.0010    -1.2820 ca         1 HR8       0.199100
     10 C3           4.1710     0.0010    -2.4890 ca         1 HR8      -0.227000
     11 Cl1          1.2220     0.0010    -5.1860 cl         1 HR8      -0.109400
     12 O2           1.9560     0.0000     1.0530 o          1 HR8      -0.586100
     13 C9          -0.7320    -0.0010     1.2690 c3         1 HR8       0.119000
     14 C11         -3.0010    -0.1210     2.3090 c3         1 HR8      -0.087600
     15 C12         -2.6210     1.3160     0.3010 c3         1 HR8      -0.087600
     16 H1          -0.5000    -0.0400    -0.8660 hn         1 HR8       0.312500
     17 H2           4.0100     0.0010    -4.6200 ha         1 HR8       0.146000
     18 H3           0.3070     0.0000    -2.4940 ha         1 HR8       0.143000
     19 H4          -2.4880    -0.8290     0.3460 hc         1 HR8       0.051700
     20 H5           5.9290     0.8840    -0.7260 h1         1 HR8       0.044367
     21 H6           6.0080     0.0070     0.8080 h1         1 HR8       0.044367
     22 H7           5.9400    -0.8850    -0.7180 h1         1 HR8       0.044367
     23 H8           5.2540     0.0010    -2.4970 ha         1 HR8       0.147000
     24 H9          -0.4670     0.8810     1.8390 h1         1 HR8       0.054700
     25 H10         -0.4730    -0.8880     1.8350 h1         1 HR8       0.054700
     26 H11         -2.7770     0.7320     2.9380 hc         1 HR8       0.037700
     27 H12         -4.0650    -0.1520     2.1080 hc         1 HR8       0.037700
     28 H13         -2.7010    -1.0310     2.8150 hc         1 HR8       0.037700
     29 H14         -1.9970     2.1180     0.6760 hc         1 HR8       0.037700
     30 H15         -2.4780     1.2170    -0.7680 hc         1 HR8       0.037700
     31 H16         -3.6610     1.5410     0.5070 hc         1 HR8       0.037700
     32 O1           4.1720    -0.0000    -0.1110 os         1 HR8      -0.276900
@<TRIPOS>BOND
     1    11     3 1
     2     2     3 ar
     3     2    10 ar
     4     3     4 ar
     5    10     9 ar
     6     4     5 ar
     7     9     5 ar
     8     9    32 1
     9     5     6 1
    10     8    32 1
    11     6    12 2
    12     6     1 1
    13     1    13 1
    14    13     7 1
    15    14     7 1
    16     7    15 1
    17     1    16 1
    18     2    17 1
    19     4    18 1
    20     7    19 1
    21     8    20 1
    22     8    21 1
    23     8    22 1
    24    10    23 1
    25    13    24 1
    26    13    25 1
    27    14    26 1
    28    14    27 1
    29    14    28 1
    30    15    29 1
    31    15    30 1
    32    15    31 1
@<TRIPOS>SUBSTRUCTURE
     1 HR8         1 TEMP              0 ****  ****    0 ROOT
