@<TRIPOS>MOLECULE
HRA
   57    61     1     0     0
SMALL
bcc


@<TRIPOS>ATOM
      1 C1           0.0000     0.0000     0.0000 c3         1 HRA      -0.033400
      2 C2           1.5310     0.0000     0.0000 c3         1 HRA      -0.053400
      3 C3           2.0340     0.0000     1.4460 c3         1 HRA       0.166100
      4 C4           0.0800     1.1670     2.2050 c3         1 HRA       0.196400
      5 C5          -4.4730    -0.4860     2.9900 ca         1 HRA      -0.029000
      6 C6          -4.1180    -1.3220     4.0250 ca         1 HRA      -0.153000
      7 C7          -3.8020    -2.6520     3.7720 ca         1 HRA       0.154100
      8 C9          -4.2070    -2.3200     1.4320 ca         1 HRA       0.015400
      9 C10         -4.5210    -0.9790     1.6820 ca         1 HRA      -0.206600
     10 C12         -6.3120     1.9980     0.8990 cc         1 HRA      -0.243100
     11 C13         -5.1160     1.3430     0.8140 cd         1 HRA      -0.202400
     12 C14         -2.6730     2.3550     1.0470 ca         1 HRA       0.600200
     13 C16         -4.7490     3.5770     1.2100 ca         1 HRA       0.286800
     14 C            3.5620     0.0610     1.4560 c3         1 HRA       0.226400
     15 O            4.0360    -0.0560     2.7990 oh         1 HRA      -0.582800
     16 O1           1.5070     1.1370     2.1320 os         1 HRA      -0.382600
     17 C18         -0.5020     1.2120     0.7890 c3         1 HRA       0.088500
     18 N3          -1.9650     1.1810     0.8610 nu         1 HRA      -0.481900
     19 C15         -4.0730     2.3620     1.0150 ca         1 HRA      -0.381400
     20 N1          -2.0420     3.5060     1.2610 nb         1 HRA      -0.739000
     21 C17         -2.7150     4.6280     1.4390 ca         1 HRA       0.693900
     22 N2          -4.0290     4.6780     1.4160 nb         1 HRA      -0.688000
     23 N           -6.0930     3.3190     1.1260 na         1 HRA       0.293900
     24 O3          -5.0660    -0.5470    -0.5480 o          1 HRA      -0.542100
     25 C8          -3.8430    -3.1460     2.4740 ca         1 HRA      -0.138000
     26 O2          -3.4540    -3.4720     4.7960 os         1 HRA      -0.222200
     27 C19         -4.4270    -3.8590     5.6630 ca         1 HRA       0.140100
     28 C24         -5.7470    -3.5030     5.4300 ca         1 HRA      -0.167500
     29 C23         -6.7340    -3.8970     6.3130 ca         1 HRA      -0.059500
     30 C22         -6.4060    -4.6470     7.4270 ca         1 HRA      -0.137000
     31 C21         -5.0910    -5.0030     7.6620 ca         1 HRA      -0.059500
     32 C20         -4.1010    -4.6160     6.7800 ca         1 HRA      -0.167500
     33 H1          -0.3610     0.0590    -1.0200 hc         1 HRA       0.021200
     34 H2          -0.3610    -0.9090     0.4660 hc         1 HRA       0.021200
     35 H3           1.8920     0.8860    -0.5070 hc         1 HRA       0.025200
     36 H4           1.8920    -0.8860    -0.5070 hc         1 HRA       0.025200
     37 H5           1.7010    -0.9040     1.9420 h1         1 HRA       0.017700
     38 H6          -0.2350     2.0470     2.7520 h1         1 HRA       0.018700
     39 H7          -0.2730     0.2760     2.7100 h1         1 HRA       0.018700
     40 H8          -4.7160     0.5500     3.1880 ha         1 HRA       0.124000
     41 H9          -4.0830    -0.9410     5.0390 ha         1 HRA       0.127000
     42 H10         -7.2860     1.5340     0.8000 h4         1 HRA       0.150000
     43 H11          3.8880     1.0060     1.0390 h1         1 HRA      -0.008300
     44 H12          3.9600    -0.7520     0.8610 h1         1 HRA      -0.008300
     45 H13          4.9780    -0.0650     2.8010 ho         1 HRA       0.387000
     46 H14         -0.1790     2.1210     0.2970 h1         1 HRA       0.067700
     47 H15         -2.4540     0.3180     0.7300 hn         1 HRA       0.303800
     48 H16         -2.1630     5.5440     1.6110 h5         1 HRA      -0.003900
     49 H17         -6.8130     4.0070     1.2270 hn         1 HRA       0.120700
     50 H18         -3.5980    -4.1830     2.2810 ha         1 HRA       0.133000
     51 H19         -6.0050    -2.9150     4.5570 ha         1 HRA       0.121000
     52 H20         -7.7650    -3.6200     6.1310 ha         1 HRA       0.103000
     53 H21         -7.1810    -4.9540     8.1190 ha         1 HRA       0.106000
     54 H22         -4.8370    -5.5920     8.5350 ha         1 HRA       0.103000
     55 H23         -3.0710    -4.8950     6.9640 ha         1 HRA       0.121000
     56 C11         -4.9120    -0.0910     0.5710 c          1 HRA       0.671900
     57 Cl          -4.2560    -2.9360    -0.1900 cl         1 HRA       0.038600
@<TRIPOS>BOND
     1     1     2 1   
     2     1    17 1   
     3     1    33 1   
     4     1    34 1   
     5     2     3 1   
     6     2    35 1   
     7     2    36 1   
     8     3    14 1   
     9     3    16 1   
    10     3    37 1   
    11     4    16 1   
    12     4    17 1   
    13     4    38 1   
    14     4    39 1   
    15     5     6 ar  
    16     5     9 ar  
    17     5    40 1   
    18     6     7 ar  
    19     6    41 1   
    20     7    25 ar  
    21     7    26 1   
    22     8     9 ar  
    23     8    25 ar  
    24     8    57 1   
    25     9    56 1   
    26    10    11 2   
    27    10    23 1   
    28    10    42 1   
    29    11    19 1   
    30    11    56 1   
    31    12    18 1   
    32    12    19 ar  
    33    12    20 ar  
    34    13    19 ar  
    35    13    22 ar  
    36    13    23 1   
    37    14    15 1   
    38    14    43 1   
    39    14    44 1   
    40    15    45 1   
    41    17    18 1   
    42    17    46 1   
    43    18    47 1   
    44    20    21 ar  
    45    21    22 ar  
    46    21    48 1   
    47    23    49 1   
    48    24    56 2   
    49    25    50 1   
    50    26    27 1   
    51    27    28 ar  
    52    27    32 ar  
    53    28    29 ar  
    54    28    51 1   
    55    29    30 ar  
    56    29    52 1   
    57    30    31 ar  
    58    30    53 1   
    59    31    32 ar  
    60    31    54 1   
    61    32    55 1   
@<TRIPOS>SUBSTRUCTURE
     1 HRA         1 TEMP              0 ****  ****    0 ROOT
