@<TRIPOS>MOLECULE
HRB
   51    52     1     0     0
SMALL
bcc


@<TRIPOS>ATOM
      1 CP5          0.0000     0.0000     0.0000 c3         1 HRB       0.005900
      2 CP4          1.5310     0.0000     0.0000 c3         1 HRB      -0.028400
      3 CP3          2.0400     0.0000     1.4430 c3         1 HRB      -0.030400
      4 CP2          3.5700     0.0000     1.4430 c3         1 HRB      -0.028400
      5 CP1          4.0790     0.0000     2.8860 c3         1 HRB      -0.033400
      6 C5           5.6100    -0.0010     2.8870 c3         1 HRB       0.171100
      7 O1           6.1180     1.2580     2.3930 os         1 HRB      -0.421600
      8 C2           7.4630     1.3880     2.8830 c3         1 HRB       0.400900
      9 O2           7.7530     2.7610     3.1480 oh         1 HRB      -0.580800
     10 C3           7.5590     0.5680     4.1840 c3         1 HRB      -0.082400
     11 C4           6.1550    -0.0720     4.3360 c3         1 HRB      -0.096000
     12 NE2          6.2580    -1.4590     4.7940 na         1 HRB       0.274100
     13 CD2          5.7110    -1.9810     5.9350 cc         1 HRB      -0.454600
     14 CE1          6.9180    -2.4610     4.1720 cc         1 HRB       0.195400
     15 ND1          6.7860    -3.5510     4.8790 nd         1 HRB      -0.581000
     16 CG           6.0460    -3.2860     5.9660 cd         1 HRB       0.324600
     17 CB           5.6640    -4.2720     7.0380 c3         1 HRB      -0.031700
     18 CA           4.9650    -5.4740     6.4000 c3         1 HRB      -0.099300
     19 C            4.6910    -6.5150     7.4540 c          1 HRB       0.976600
     20 OXT          5.7100    -7.0600     8.1400 o          1 HRB      -0.891300
     21 O            3.5570    -6.8600     7.6830 o          1 HRB      -0.891300
     22 N            3.6990    -5.0420     5.8020 ns         1 HRB      -0.137900
     23 CA1          3.1590    -5.7430     4.7860 c          1 HRB       0.565100
     24 CA2          1.8570    -5.2990     4.1710 c3         1 HRB      -0.073100
     25 OA1          3.7220    -6.7330     4.3660 o          1 HRB      -0.662100
     26 HP51        -0.3610     0.8690     0.5360 hc         1 HRB      -0.000633
     27 HP52        -0.3610     0.0290    -1.0210 hc         1 HRB      -0.000633
     28 HP53        -0.3610    -0.8990     0.4850 hc         1 HRB      -0.000633
     29 HP41         1.8920    -0.8850    -0.5110 hc         1 HRB       0.011700
     30 HP42         1.8920     0.8850    -0.5110 hc         1 HRB       0.011700
     31 HP31         1.6790    -0.8850     1.9540 hc         1 HRB       0.016700
     32 HP32         1.6790     0.8840     1.9540 hc         1 HRB       0.016700
     33 HP21         3.9310    -0.8840     0.9330 hc         1 HRB       0.020200
     34 HP22         3.9310     0.8850     0.9330 hc         1 HRB       0.020200
     35 HP11         3.7170    -0.8840     3.3970 hc         1 HRB       0.030200
     36 HP12         3.7180     0.8850     3.3970 hc         1 HRB       0.030200
     37 H5           5.9970    -0.8220     2.2960 h1         1 HRB       0.033700
     38 H2           8.1580     0.9940     2.1510 h2         1 HRB      -0.007300
     39 HO2          8.0730     3.1730     2.3620 ho         1 HRB       0.393000
     40 H31          7.7700     1.2180     5.0250 hc         1 HRB       0.046200
     41 H32          8.3160    -0.2010     4.0910 hc         1 HRB       0.046200
     42 H4           5.5380     0.5160     5.0050 h1         1 HRB       0.064700
     43 HD2          5.1160    -1.4490     6.6680 h4         1 HRB       0.152000
     44 HE1          7.4650    -2.3750     3.2410 h5         1 HRB       0.014100
     45 HB1          6.5550    -4.6060     7.5560 hc         1 HRB       0.033700
     46 HB2          4.9930    -3.7970     7.7440 hc         1 HRB       0.033700
     47 HA           5.6010    -5.8960     5.6320 h1         1 HRB       0.073700
     48 HN           3.2220    -4.2410     6.1650 hn         1 HRB       0.145500
     49 HA21         1.1560    -5.0420     4.9550 hc         1 HRB       0.007033
     50 HA22         1.4490    -6.1020     3.5690 hc         1 HRB       0.007033
     51 HA23         2.0310    -4.4320     3.5450 hc         1 HRB       0.007033
@<TRIPOS>BOND
     1     1     2 1   
     2     1    26 1   
     3     1    27 1   
     4     1    28 1   
     5     2     3 1   
     6     2    29 1   
     7     2    30 1   
     8     3     4 1   
     9     3    31 1   
    10     3    32 1   
    11     4     5 1   
    12     4    33 1   
    13     4    34 1   
    14     5     6 1   
    15     5    35 1   
    16     5    36 1   
    17     6     7 1   
    18     6    11 1   
    19     6    37 1   
    20     7     8 1   
    21     8     9 1   
    22     8    10 1   
    23     8    38 1   
    24     9    39 1   
    25    10    11 1   
    26    10    40 1   
    27    10    41 1   
    28    11    12 1   
    29    11    42 1   
    30    12    13 1   
    31    12    14 1   
    32    13    16 2   
    33    13    43 1   
    34    14    15 2   
    35    14    44 1   
    36    15    16 1   
    37    16    17 1   
    38    17    18 1   
    39    17    45 1   
    40    17    46 1   
    41    18    19 1   
    42    18    22 1   
    43    18    47 1   
    44    19    20 1   
    45    19    21 1   
    46    22    23 1   
    47    22    48 1   
    48    23    24 1   
    49    23    25 2   
    50    24    49 1   
    51    24    50 1   
    52    24    51 1   
@<TRIPOS>SUBSTRUCTURE
     1 HRB         1 TEMP              0 ****  ****    0 ROOT
