@<TRIPOS>MOLECULE
HRC
   34    35     1     0     0
SMALL
bcc


@<TRIPOS>ATOM
      1 O1           0.0000     0.0000     0.0000 o          1 HRC      -0.587300
      2 S            1.4200     0.0000     0.0000 sy         1 HRC       1.036200
      3 O2           2.1980     0.0000     1.1900 o          1 HRC      -0.587300
      4 C9           1.9180    -1.4190    -0.9190 ca         1 HRC      -0.156500
      5 C14          1.0250    -2.0350    -1.7760 ca         1 HRC       0.007000
      6 C13          1.4150    -3.1490    -2.4970 ca         1 HRC      -0.134000
      7 C12          2.6980    -3.6450    -2.3620 ca         1 HRC      -0.046000
      8 C11          3.5910    -3.0280    -1.5060 ca         1 HRC      -0.134000
      9 C10          3.2030    -1.9120    -0.7880 ca         1 HRC       0.007000
     10 N            1.8890     1.3320    -0.8650 nu         1 HRC      -0.406500
     11 C1           1.2970     1.6060    -2.1030 ca         1 HRC       0.016600
     12 C6           0.0160     2.1400    -2.1580 ca         1 HRC      -0.053800
     13 C7          -0.7370     2.4250    -0.8840 c3         1 HRC       0.050200
     14 C2           1.9930     1.3500    -3.2770 ca         1 HRC      -0.053800
     15 C8           3.3860     0.7760    -3.2180 c3         1 HRC       0.050200
     16 C3           1.4090     1.6210    -4.4990 ca         1 HRC      -0.148000
     17 C4           0.1260     2.1480    -4.5520 ca         1 HRC       0.137100
     18 O3          -0.4480     2.4150    -5.7560 oh         1 HRC      -0.502100
     19 C5          -0.5670     2.4100    -3.3800 ca         1 HRC      -0.148000
     20 H1           0.0190    -1.6460    -1.8810 ha         1 HRC       0.123000
     21 H2           0.7150    -3.6330    -3.1680 ha         1 HRC       0.109000
     22 H3           3.0030    -4.5180    -2.9250 ha         1 HRC       0.102000
     23 H4           4.5970    -3.4160    -1.4020 ha         1 HRC       0.109000
     24 H5           3.9030    -1.4290    -0.1170 ha         1 HRC       0.123000
     25 H6           2.5690     1.9610    -0.4850 hn         1 HRC       0.348800
     26 H7          -0.0350     2.5250    -0.0650 hc         1 HRC       0.016367
     27 H8          -1.4190     1.6100    -0.6780 hc         1 HRC       0.016367
     28 H9          -1.2970     3.3460    -0.9940 hc         1 HRC       0.016367
     29 H10          4.0610     1.4100    -3.7800 hc         1 HRC       0.016367
     30 H11          3.3840    -0.2190    -3.6450 hc         1 HRC       0.016367
     31 H12          3.7130     0.7260    -2.1860 hc         1 HRC       0.016367
     32 H13          1.9510     1.4210    -5.4150 ha         1 HRC       0.119000
     33 H14         -0.9390     1.6630    -6.0430 ho         1 HRC       0.403000
     34 H15         -1.5670     2.8240    -3.4240 ha         1 HRC       0.119000
@<TRIPOS>BOND
     1     1     2 2   
     2     2     3 2   
     3     2     4 1   
     4     2    10 1   
     5     4     5 ar  
     6     4     9 ar  
     7     5     6 ar  
     8     5    20 1   
     9     6     7 ar  
    10     6    21 1   
    11     7     8 ar  
    12     7    22 1   
    13     8     9 ar  
    14     8    23 1   
    15     9    24 1   
    16    10    11 1   
    17    10    25 1   
    18    11    12 ar  
    19    11    14 ar  
    20    12    13 1   
    21    12    19 ar  
    22    13    26 1   
    23    13    27 1   
    24    13    28 1   
    25    14    15 1   
    26    14    16 ar  
    27    15    29 1   
    28    15    30 1   
    29    15    31 1   
    30    16    17 ar  
    31    16    32 1   
    32    17    18 1   
    33    17    19 ar  
    34    18    33 1   
    35    19    34 1   
@<TRIPOS>SUBSTRUCTURE
     1 HRC         1 TEMP              0 ****  ****    0 ROOT
