@<TRIPOS>MOLECULE
molecule
   34    35     1     0     0
SMALL
bcc


@<TRIPOS>ATOM
      1 O1           0.0000     0.0000     0.0000 o          1 HRC      -0.635300
      2 S            1.4200     0.0000     0.0000 sy         1 HRC       1.423200
      3 O2           2.1980     0.0000     1.1900 o          1 HRC      -0.635300
      4 C9           1.9180    -1.4190    -0.9190 ca         1 HRC      -0.309500
      5 C14          1.0250    -2.0350    -1.7760 ca         1 HRC      -0.026000
      6 C13          1.4150    -3.1490    -2.4970 ca         1 HRC      -0.152500
      7 C12          2.6980    -3.6450    -2.3620 ca         1 HRC      -0.075000
      8 C11          3.5910    -3.0280    -1.5060 ca         1 HRC      -0.152500
      9 C10          3.2030    -1.9120    -0.7880 ca         1 HRC      -0.026000
     10 N            1.8890     1.3320    -0.8650 nu         1 HRC      -0.776500
     11 C1           1.2970     1.6060    -2.1030 ca         1 HRC       0.099600
     12 C6           0.0160     2.1400    -2.1580 ca         1 HRC      -0.050800
     13 C7          -0.7370     2.4250    -0.8840 c3         1 HRC      -0.048300
     14 C2           1.9930     1.3500    -3.2770 ca         1 HRC      -0.050800
     15 C8           3.3860     0.7760    -3.2180 c3         1 HRC      -0.048300
     16 C3           1.4090     1.6210    -4.4990 ca         1 HRC      -0.161000
     17 C4           0.1260     2.1480    -4.5520 ca         1 HRC       0.121100
     18 O3          -0.4480     2.4150    -5.7560 oh         1 HRC      -0.522100
     19 C5          -0.5670     2.4100    -3.3800 ca         1 HRC      -0.161000
     20 H1           0.0190    -1.6460    -1.8810 ha         1 HRC       0.150500
     21 H2           0.7150    -3.6330    -3.1680 ha         1 HRC       0.137000
     22 H3           3.0030    -4.5180    -2.9250 ha         1 HRC       0.133000
     23 H4           4.5970    -3.4160    -1.4020 ha         1 HRC       0.137000
     24 H5           3.9030    -1.4290    -0.1170 ha         1 HRC       0.150500
     25 H6           2.5690     1.9610    -0.4850 hn         1 HRC       0.463800
     26 H7          -0.0350     2.5250    -0.0650 hc         1 HRC       0.051033
     27 H8          -1.4190     1.6100    -0.6780 hc         1 HRC       0.051033
     28 H9          -1.2970     3.3460    -0.9940 hc         1 HRC       0.051033
     29 H10          4.0610     1.4100    -3.7800 hc         1 HRC       0.051033
     30 H11          3.3840    -0.2190    -3.6450 hc         1 HRC       0.051033
     31 H12          3.7130     0.7260    -2.1860 hc         1 HRC       0.051033
     32 H13          1.9510     1.4210    -5.4150 ha         1 HRC       0.145500
     33 H14         -0.9390     1.6630    -6.0430 ho         1 HRC       0.421000
     34 H15         -1.5670     2.8240    -3.4240 ha         1 HRC       0.145500
@<TRIPOS>BOND
     1    18    17 1
     2    17    19 ar
     3    17    16 ar
     4    19    12 ar
     5    16    14 ar
     6    12    13 1
     7    12    11 ar
     8    14    11 ar
     9    14    15 1
    10    11    10 1
    11    10     2 1
    12     3     2 2
    13     2     1 2
    14     2     4 1
    15     5     4 ar
    16     5     6 ar
    17     4     9 ar
    18     6     7 ar
    19     9     8 ar
    20     7     8 ar
    21     5    20 1
    22     6    21 1
    23     7    22 1
    24     8    23 1
    25     9    24 1
    26    10    25 1
    27    13    26 1
    28    13    27 1
    29    13    28 1
    30    15    29 1
    31    15    30 1
    32    15    31 1
    33    16    32 1
    34    18    33 1
    35    19    34 1
@<TRIPOS>SUBSTRUCTURE
     1 HRC         1 TEMP              0 ****  ****    0 ROOT
