@<TRIPOS>MOLECULE
HRD
   30    32     1     0     0
SMALL
bcc


@<TRIPOS>ATOM
      1 N1           0.0000     0.0000     0.0000 nc         1 HRD      -0.619100
      2 N3           1.7790     0.0000     1.2820 na         1 HRD       0.212700
      3 C4           1.3110     0.0000     0.0000 cd         1 HRD       0.355700
      4 C5           3.5600    -0.0000    -1.0010 c3         1 HRD       0.195100
      5 C6           0.6730    -0.0010     2.1220 ca         1 HRD      -0.317200
      6 C7           0.5220    -0.0020     3.4930 ca         1 HRD       0.021000
      7 C8          -0.7570    -0.0030     4.0450 ca         1 HRD      -0.249600
      8 C10         -3.2890    -0.0040     5.0710 cc         1 HRD       0.390800
      9 C1          -1.8990    -0.0040     3.2060 ca         1 HRD       0.188400
     10 C2          -1.7410    -0.0000     1.8260 ca         1 HRD      -0.090000
     11 C3          -0.4580     0.0000     1.2780 ca         1 HRD       0.156400
     12 N2           2.1000    -0.0000    -1.1280 nu         1 HRD      -0.466200
     13 C9          -0.9670    -0.0040     5.4980 c          1 HRD       0.644100
     14 O1          -0.0260    -0.0050     6.2710 o          1 HRD      -0.678500
     15 N4          -2.2420    -0.0060     5.9480 ns         1 HRD      -0.047400
     16 N5          -4.5650    -0.0040     5.5780 nu         1 HRD      -0.472200
     17 C11         -5.7140    -0.0040     4.6670 c3         1 HRD       0.214100
     18 N6          -3.1330    -0.0040     3.7730 nd         1 HRD      -0.633100
     19 H5           3.8750    -0.8850    -0.4610 h1         1 HRD       0.004700
     20 H5A          4.0080    -0.0000    -1.9870 h1         1 HRD       0.004700
     21 H7           1.3880     0.1180     4.1330 ha         1 HRD       0.115000
     22 H2          -2.6050    -0.1040     1.1810 ha         1 HRD       0.127000
     23 H11         -5.6800     0.8820     4.0440 h1         1 HRD       0.012033
     24 H11A        -6.6310    -0.0050     5.2440 h1         1 HRD       0.012033
     25 H9           3.8750     0.8840    -0.4610 h1         1 HRD       0.004700
     26 H10          1.6770    -0.0000    -2.0350 hn         1 HRD       0.312800
     27 H111        -4.7110     0.0180     6.5680 hn         1 HRD       0.285800
     28 H12         -5.6800    -0.8870     4.0420 h1         1 HRD       0.012033
     29 H13         -2.4200    -0.0080     6.9330 hn         1 HRD       0.174500
     30 H121         2.7390    -0.0000     1.5640 hn         1 HRD       0.130700
@<TRIPOS>BOND
     1     1     3 2   
     2     1    11 1   
     3     2     3 1   
     4     2     5 1   
     5     2    30 1   
     6     3    12 1   
     7     4    12 1   
     8     4    19 1   
     9     4    20 1   
    10     4    25 1   
    11     5     6 ar  
    12     5    11 ar  
    13     6     7 ar  
    14     6    21 1   
    15     7     9 ar  
    16     7    13 1   
    17     8    15 1   
    18     8    16 1   
    19     8    18 2   
    20     9    10 ar  
    21     9    18 1   
    22    10    11 ar  
    23    10    22 1   
    24    12    26 1   
    25    13    14 2   
    26    13    15 1   
    27    15    29 1   
    28    16    17 1   
    29    16    27 1   
    30    17    23 1   
    31    17    24 1   
    32    17    28 1   
@<TRIPOS>SUBSTRUCTURE
     1 HRD         1 TEMP              0 ****  ****    0 ROOT
