@<TRIPOS>MOLECULE
molecule
   19    18     1     0     0
SMALL
bcc


@<TRIPOS>ATOM
      1 CZ           1.5290     0.0000     0.0000 c3         1 HRI      -0.018300
      2 CH1          0.0000     0.0000     0.0000 c3         1 HRI      -0.068400
      3 CF1         -0.5110    -0.1300    -1.4360 c3         1 HRI      -0.088700
      4 CI1         -0.1250    -1.5030    -1.9910 c3         1 HRI      -0.086100
      5 CI2         -2.0330     0.0150    -1.4520 c3         1 HRI      -0.086100
      6 CH2          2.0320     0.0000     1.4200 c          1 HRI       0.889600
      7 OF2          1.3790     0.5220     2.2920 o          1 HRI      -0.831300
      8 OF3          3.2040    -0.5810     1.7170 o          1 HRI      -0.831300
      9 Cl           2.1300     1.4720    -0.8500 cl         1 HRI      -0.264400
     10 HCZ          1.8900    -0.8840    -0.5110 h1         1 HRI       0.060700
     11 HCH1        -0.3610     0.9270     0.4290 hc         1 HRI       0.058200
     12 HCH2        -0.3610    -0.8350     0.5890 hc         1 HRI       0.058200
     13 HCF1        -0.0680     0.6450    -2.0490 hc         1 HRI       0.056700
     14 HI11        -0.7530    -1.7390    -2.8410 hc         1 HRI       0.025200
     15 HI12         0.9130    -1.4890    -2.3010 hc         1 HRI       0.025200
     16 HI13        -0.2620    -2.2550    -1.2220 hc         1 HRI       0.025200
     17 HI21        -2.3080     0.9860    -1.0560 hc         1 HRI       0.025200
     18 HI22        -2.4770    -0.7620    -0.8410 hc         1 HRI       0.025200
     19 HI23        -2.3940    -0.0750    -2.4690 hc         1 HRI       0.025200
@<TRIPOS>BOND
     1     1     2 1
     2     1     6 1
     3     1     9 1
     4     1    10 1
     5     2     3 1
     6     2    11 1
     7     2    12 1
     8     3     4 1
     9     3     5 1
    10     3    13 1
    11     4    14 1
    12     4    15 1
    13     4    16 1
    14     5    17 1
    15     5    18 1
    16     5    19 1
    17     6     7 1
    18     6     8 1
@<TRIPOS>SUBSTRUCTURE
     1 HRI         1 TEMP              0 ****  ****    0 ROOT
