@<TRIPOS>MOLECULE
HRI
   19    18     1     0     0
SMALL
bcc


@<TRIPOS>ATOM
      1 CZ          1.5560    0.1690   -0.0080 c3        1 HRI     -0.040300
      2 CH1         0.0620   -0.0510   -0.0410 c3        1 HRI     -0.072400
      3 CF1        -0.5130   -0.2240   -1.4400 c3        1 HRI     -0.076700
      4 CI1        -0.2040   -1.5990   -1.9960 c3        1 HRI     -0.084100
      5 CI2        -2.0110    0.0050   -1.4210 c3        1 HRI     -0.084100
      6 CH2         2.0890    0.0740    1.4490 c         1 HRI      0.918600
      7 OF2         1.4140    0.6050    2.3700 o         1 HRI     -0.823800
      8 OF3         3.1550   -0.5800    1.6110 o         1 HRI     -0.823800
      9 CL          1.9800    1.7550   -0.7150 cl        1 HRI     -0.276400
     10 HCZ         2.0980   -0.5640   -0.6530 h1        1 HRI      0.051700
     11 HCH1       -0.4390    0.8100    0.4760 hc        1 HRI      0.059200
     12 HCH2       -0.1580   -0.9680    0.5700 hc        1 HRI      0.059200
     13 HCF1       -0.0450    0.5460   -2.1160 hc        1 HRI      0.052700
     14 HI11       -0.5950   -1.6950   -3.0380 hc        1 HRI      0.023533
     15 HI12       -0.6760   -2.3920   -1.3670 hc        1 HRI      0.023533
     16 HI13        0.8980   -1.7720   -2.0110 hc        1 HRI      0.023533
     17 HI21       -2.5060   -0.7110   -0.7220 hc        1 HRI      0.023533
     18 HI22       -2.4420   -0.1410   -2.4410 hc        1 HRI      0.023533
     19 HI23       -2.2400    1.0440   -1.0830 hc        1 HRI      0.023533
@<TRIPOS>BOND
     1    1    2 1   
     2    1    6 1   
     3    1    9 1   
     4    1   10 1   
     5    2    3 1   
     6    2   11 1   
     7    2   12 1   
     8    3    4 1   
     9    3    5 1   
    10    3   13 1   
    11    4   14 1   
    12    4   15 1   
    13    4   16 1   
    14    5   17 1   
    15    5   18 1   
    16    5   19 1   
    17    6    7 1   
    18    6    8 1   
@<TRIPOS>SUBSTRUCTURE
     1 HRI         1 TEMP              0 ****  ****    0 ROOT
