@<TRIPOS>MOLECULE
molecule
   28    30     1     0     0
SMALL
bcc


@<TRIPOS>ATOM
      1 CAB          0.0000     0.0000     0.0000 c3         1 HRM      -0.141400
      2 CAL          1.5080     0.0000     0.0000 ca         1 HRM       0.409600
      3 NAH          2.1600     0.0000     1.1450 nb         1 HRM      -0.669000
      4 CAC          3.4800    -0.0000     1.2080 ca         1 HRM       0.386200
      5 CAE          4.2460     0.0010     0.0610 ca         1 HRM      -0.207300
      6 CAO          3.6020     0.0000    -1.1750 cp         1 HRM      -0.048000
      7 CAP          2.1970    -0.0060    -1.2060 ca         1 HRM      -0.122500
      8 NAI          1.7930    -0.0100    -2.5280 na         1 HRM      -0.183300
      9 CAM          2.8940    -0.0140    -3.3660 ca         1 HRM       0.046800
     10 CAG          3.0130    -0.0200    -4.7520 ca         1 HRM      -0.202000
     11 CAN          4.0540     0.0010    -2.5740 cp         1 HRM      -0.134000
     12 CAF          5.3100     0.0020    -3.1770 ca         1 HRM      -0.027000
     13 CAD          5.4130     0.0020    -4.5500 ca         1 HRM      -0.251000
     14 CAK          4.2660    -0.0210    -5.3370 ca         1 HRM       0.179100
     15 OAJ          4.3780    -0.0270    -6.6920 os         1 HRM      -0.327900
     16 CAA          5.6990    -0.0290    -7.2340 c3         1 HRM       0.129700
     17 HAB1        -0.3610    -0.8870    -0.5070 hc         1 HRM       0.050367
     18 HAB2        -0.3610     0.0050     1.0210 hc         1 HRM       0.050367
     19 HAB3        -0.3610     0.8820    -0.5150 hc         1 HRM       0.050367
     20 HAC          3.9670    -0.0000     2.1750 h4         1 HRM       0.024100
     21 HAE          5.3280     0.0010     0.1200 ha         1 HRM       0.138000
     22 HNAI         0.8400    -0.0100    -2.8350 hn         1 HRM       0.302700
     23 HAG          2.1250    -0.0380    -5.3720 ha         1 HRM       0.145000
     24 HAF          6.2040     0.0200    -2.5660 ha         1 HRM       0.134000
     25 HAD          6.3900     0.0000    -5.0180 ha         1 HRM       0.138000
     26 HAA1         6.2300    -0.9080    -6.8880 h1         1 HRM       0.042700
     27 HAA2         5.6460    -0.0420    -8.3160 h1         1 HRM       0.042700
     28 HAA3         6.2240     0.8610    -6.9090 h1         1 HRM       0.042700
@<TRIPOS>BOND
     1     1     2 1
     2     1    17 1
     3     1    18 1
     4     1    19 1
     5     2     3 ar
     6     2     7 ar
     7     3     4 ar
     8     4     5 ar
     9     4    20 1
    10     5     6 ar
    11     5    21 1
    12     6     7 ar
    13     6    11 1
    14     7     8 1
    15     8     9 1
    16     8    22 1
    17     9    10 ar
    18     9    11 ar
    19    10    14 ar
    20    10    23 1
    21    11    12 ar
    22    12    13 ar
    23    12    24 1
    24    13    14 ar
    25    13    25 1
    26    14    15 1
    27    15    16 1
    28    16    26 1
    29    16    27 1
    30    16    28 1
@<TRIPOS>SUBSTRUCTURE
     1 HRM         1 TEMP              0 ****  ****    0 ROOT
