@<TRIPOS>MOLECULE
HRM
   28    30     1     0     0
SMALL
bcc


@<TRIPOS>ATOM
      1 CAB        -0.0130   -0.0200   -0.0630 c3        1 HRM     -0.146400
      2 CAL         1.4770   -0.0070    0.0070 ca        1 HRM      0.399600
      3 NAH         2.1090    0.0210    1.2030 nb        1 HRM     -0.651000
      4 CAC         3.4550    0.0250    1.2330 ca        1 HRM      0.372200
      5 CAE         4.2900    0.0080    0.1000 ca        1 HRM     -0.204300
      6 CAO         3.6710   -0.0130   -1.1400 cp        1 HRM     -0.028000
      7 CAP         2.2250   -0.0270   -1.1930 ca        1 HRM     -0.146500
      8 NAI         1.7930   -0.1200   -2.5300 na        1 HRM     -0.170300
      9 CAM         2.9400   -0.0420   -3.3450 ca        1 HRM      0.022800
     10 CAG         3.0310   -0.0380   -4.7350 ca        1 HRM     -0.192000
     11 CAN         4.1300   -0.0230   -2.5170 cp        1 HRM     -0.121000
     12 CAF         5.3820   -0.0160   -3.1100 ca        1 HRM     -0.034000
     13 CAD         5.4830   -0.0160   -4.5000 ca        1 HRM     -0.235000
     14 CAK         4.3220   -0.0250   -5.2930 ca        1 HRM      0.160100
     15 OAJ         4.3340   -0.0200   -6.6750 os        1 HRM     -0.327900
     16 CAA         5.6130   -0.0130   -7.2980 c3        1 HRM      0.113700
     17 HAB1       -0.4830    0.0420    0.9490 hc        1 HRM      0.052033
     18 HAB2       -0.3540   -0.9650   -0.5550 hc        1 HRM      0.052033
     19 HAB3       -0.3670    0.8490   -0.6710 hc        1 HRM      0.052033
     20 HAC         3.8960    0.0440    2.2460 h4        1 HRM      0.021100
     21 HAE         5.3820    0.0110    0.2020 ha        1 HRM      0.145000
     22 HNAI        0.9090    0.2150   -2.8220 hn        1 HRM      0.290700
     23 HAG         2.1480   -0.0510   -5.3860 ha        1 HRM      0.156000
     24 HAF         6.2910   -0.0110   -2.4900 ha        1 HRM      0.139000
     25 HAD         6.4770   -0.0090   -4.9670 ha        1 HRM      0.140000
     26 HAA1        6.1820    0.9080   -7.0220 h1        1 HRM      0.046033
     27 HAA2        5.3680   -0.0130   -8.3900 h1        1 HRM      0.046033
     28 HAA3        6.1910   -0.9290   -7.0240 h1        1 HRM      0.046033
@<TRIPOS>BOND
     1    1    2 1   
     2    1   17 1   
     3    1   18 1   
     4    1   19 1   
     5    2    3 ar  
     6    2    7 ar  
     7    3    4 ar  
     8    4    5 ar  
     9    4   20 1   
    10    5    6 ar  
    11    5   21 1   
    12    6    7 ar  
    13    6   11 1   
    14    7    8 1   
    15    8    9 1   
    16    8   22 1   
    17    9   10 ar  
    18    9   11 ar  
    19   10   14 ar  
    20   10   23 1   
    21   11   12 ar  
    22   12   13 ar  
    23   12   24 1   
    24   13   14 ar  
    25   13   25 1   
    26   14   15 1   
    27   15   16 1   
    28   16   26 1   
    29   16   27 1   
    30   16   28 1   
@<TRIPOS>SUBSTRUCTURE
     1 HRM         1 TEMP              0 ****  ****    0 ROOT
