@<TRIPOS>MOLECULE
molecule
   14    14     1     0     0
SMALL
bcc


@<TRIPOS>ATOM
      1 OAA          0.0000     0.0000     0.0000 o          1 HRO      -0.798300
      2 CAH          1.3470     0.0000     0.0000 c          1 HRO       0.874800
      3 OAD          1.9550     0.0000     1.0520 o          1 HRO      -0.798300
      4 CAI          2.0880     0.0010    -1.2820 cc         1 HRO       0.043400
      5 CAJ          1.4150     0.0070    -2.4640 cd         1 HRO      -0.168800
      6 Cl          -0.3210     0.0160    -2.4980 cl         1 HRO      -0.028400
      7 CAL          2.1930     0.0080    -3.7100 c          1 HRO       0.700700
      8 OAC          1.6320     0.0130    -4.7900 o          1 HRO      -0.645500
      9 NAG          3.5400     0.0010    -3.6360 ns         1 HRO      -0.565500
     10 CAK          4.1570    -0.0050    -2.4420 c          1 HRO       0.798500
     11 OAB          5.3720    -0.0100    -2.4040 o          1 HRO      -0.703500
     12 NAF          3.4680     0.0000    -1.2890 ns         1 HRO      -0.431100
     13 H3           4.0840     0.0020    -4.4770 hn         1 HRO       0.345500
     14 H2           3.9650    -0.0040    -0.4200 hn         1 HRO       0.375500
@<TRIPOS>BOND
     1     6     5 1
     2     8     7 2
     3     7     5 1
     4     7     9 1
     5     5     4 2
     6     9    10 1
     7     3     2 1
     8     1     2 1
     9     4     2 1
    10     4    12 1
    11    10    12 1
    12    10    11 2
    13     9    13 1
    14    12    14 1
@<TRIPOS>SUBSTRUCTURE
     1 HRO         1 TEMP              0 ****  ****    0 ROOT
