@<TRIPOS>MOLECULE
HRO
   14    14     1     0     0
SMALL
bcc


@<TRIPOS>ATOM
      1 OAA          0.0000     0.0000     0.0000 o          1 HRO      -0.855800
      2 CAH          1.3470     0.0000     0.0000 c          1 HRO       0.970800
      3 OAD          1.9550     0.0000     1.0520 o          1 HRO      -0.855800
      4 CAI          2.0880     0.0010    -1.2820 cc         1 HRO      -0.137600
      5 CAJ          1.4150     0.0070    -2.4640 cd         1 HRO      -0.241800
      6 Cl          -0.3210     0.0160    -2.4980 cl         1 HRO       0.085600
      7 CAL          2.1930     0.0080    -3.7100 c          1 HRO       0.616700
      8 OAC          1.6320     0.0130    -4.7900 o          1 HRO      -0.693500
      9 NAG          3.5400     0.0010    -3.6360 ns         1 HRO      -0.135500
     10 CAK          4.1570    -0.0050    -2.4420 c          1 HRO       0.561500
     11 OAB          5.3720    -0.0100    -2.4040 o          1 HRO      -0.760500
     12 NAF          3.4680     0.0000    -1.2890 ns         1 HRO       0.051900
     13 H3           4.0840     0.0020    -4.4770 hn         1 HRO       0.188500
     14 H2           3.9650    -0.0040    -0.4200 hn         1 HRO       0.206500
@<TRIPOS>BOND
     1     1     2 1   
     2     2     3 1   
     3     2     4 1   
     4     4     5 2   
     5     4    12 1   
     6     5     6 1   
     7     5     7 1   
     8     7     8 2   
     9     7     9 1   
    10     9    10 1   
    11     9    13 1   
    12    10    11 2   
    13    10    12 1   
    14    12    14 1   
@<TRIPOS>SUBSTRUCTURE
     1 HRO         1 TEMP              0 ****  ****    0 ROOT
