@<TRIPOS>MOLECULE
HRW
   46    48     1     0     0
SMALL
bcc


@<TRIPOS>ATOM
      1 F2           0.0000     0.0000     0.0000 f          1 HRW      -0.208300
      2 C17          1.3990     0.0000     0.0000 c3         1 HRW       0.641200
      3 F            1.8660     0.0000     1.3180 f          1 HRW      -0.208300
      4 F1           1.8650    -1.1430    -0.6590 f          1 HRW      -0.208300
      5 C15          1.9020     1.2300    -0.7110 ca         1 HRW      -0.210300
      6 C14          1.0040     2.1400    -1.2370 ca         1 HRW      -0.044000
      7 C13          1.4650     3.2690    -1.8890 ca         1 HRW      -0.101000
      8 C12          2.8230     3.4860    -2.0150 ca         1 HRW      -0.052000
      9 C16          3.2610     1.4510    -0.8330 ca         1 HRW      -0.034000
     10 C11          3.7220     2.5780    -1.4890 ca         1 HRW      -0.107300
     11 C10          5.2030     2.8160    -1.6270 c3         1 HRW       0.149100
     12 C9           5.6980     3.6060    -0.4430 cc         1 HRW      -0.068600
     13 C8           6.2390     3.1300     0.6720 cd         1 HRW      -0.142000
     14 N3           6.6130     4.0420     1.6080 na         1 HRW      -0.144000
     15 S1           5.6870     5.3680    -0.2490 ss         1 HRW      -0.132800
     16 C7           6.4000     5.3460     1.3180 cc         1 HRW       0.530100
     17 N2           6.6880     6.4000     2.0870 nf         1 HRW      -0.700100
     18 C6           6.4170     7.6260     1.6590 c          1 HRW       0.731500
     19 O            5.9060     7.7910     0.5680 o          1 HRW      -0.615100
     20 C5           6.7420     8.8140     2.5270 c3         1 HRW       0.024700
     21 S            6.2570    10.3350     1.6720 ss         1 HRW      -0.331400
     22 C4           6.7360    11.5290     2.8770 ca         1 HRW       0.739300
     23 N            6.5420    12.8160     2.6250 nb         1 HRW      -0.626500
     24 C3           6.8900    13.7370     3.5080 ca         1 HRW       0.429600
     25 C18          6.6650    15.1980     3.2140 c3         1 HRW      -0.042400
     26 C2           7.4640    13.3420     4.7060 ca         1 HRW      -0.360600
     27 N1           7.2770    11.1180     4.0150 nb         1 HRW      -0.626500
     28 C1           7.6530    11.9890     4.9370 ca         1 HRW       0.429600
     29 C            8.2740    11.5140     6.2260 c3         1 HRW      -0.042400
     30 H14         -0.0610     1.9690    -1.1380 ha         1 HRW       0.122000
     31 H16          3.9650     0.7380    -0.4210 ha         1 HRW       0.114000
     32 H13          0.7610     3.9820    -2.3010 ha         1 HRW       0.114000
     33 H12          3.1850     4.3700    -2.5270 ha         1 HRW       0.116000
     34 H101         5.3960     3.3700    -2.5380 hc         1 HRW       0.028700
     35 H102         5.7200     1.8640    -1.6680 hc         1 HRW       0.028700
     36 H8           6.6630     2.1340     0.6860 h4         1 HRW       0.148000
     37 H3           7.0260     3.7600     2.4750 hn         1 HRW       0.292800
     38 H51C         6.2010     8.7370     3.4620 h1         1 HRW       0.066200
     39 H52C         7.8070     8.8360     2.7250 h1         1 HRW       0.066200
     40 H181         7.6140    15.7190     3.2260 hc         1 HRW       0.018200
     41 H182         6.2070    15.3030     2.2380 hc         1 HRW       0.018200
     42 H183         6.0110    15.6210     3.9670 hc         1 HRW       0.018200
     43 H2           7.7610    14.0760     5.4460 ha         1 HRW       0.128000
     44 HC1          8.4040    10.4390     6.1900 hc         1 HRW       0.018200
     45 HC2          9.2390    11.9900     6.3590 hc         1 HRW       0.018200
     46 HC3          7.6270    11.7720     7.0550 hc         1 HRW       0.018200
@<TRIPOS>BOND
     1     1     2 1   
     2     2     3 1   
     3     2     4 1   
     4     2     5 1   
     5     5     6 ar  
     6     5     9 ar  
     7     6     7 ar  
     8     6    30 1   
     9     7     8 ar  
    10     7    32 1   
    11     8    10 ar  
    12     8    33 1   
    13     9    10 ar  
    14     9    31 1   
    15    10    11 1   
    16    11    12 1   
    17    11    34 1   
    18    11    35 1   
    19    12    13 2   
    20    12    15 1   
    21    13    14 1   
    22    13    36 1   
    23    14    16 1   
    24    14    37 1   
    25    15    16 1   
    26    16    17 2   
    27    17    18 1   
    28    18    19 2   
    29    18    20 1   
    30    20    21 1   
    31    20    38 1   
    32    20    39 1   
    33    21    22 1   
    34    22    23 ar  
    35    22    27 ar  
    36    23    24 ar  
    37    24    25 1   
    38    24    26 ar  
    39    25    40 1   
    40    25    41 1   
    41    25    42 1   
    42    26    28 ar  
    43    26    43 1   
    44    27    28 ar  
    45    28    29 1   
    46    29    44 1   
    47    29    45 1   
    48    29    46 1   
@<TRIPOS>SUBSTRUCTURE
     1 HRW         1 TEMP              0 ****  ****    0 ROOT
