@<TRIPOS>MOLECULE
molecule
   46    48     1     0     0
SMALL
bcc


@<TRIPOS>ATOM
      1 F2           0.0000     0.0000     0.0000 f          1 HRW      -0.223633
      2 C17          1.3990     0.0000     0.0000 c3         1 HRW       0.674200
      3 F            1.8660     0.0000     1.3180 f          1 HRW      -0.223633
      4 F1           1.8650    -1.1430    -0.6590 f          1 HRW      -0.223633
      5 C15          1.9020     1.2300    -0.7110 ca         1 HRW      -0.178300
      6 C14          1.0040     2.1400    -1.2370 ca         1 HRW      -0.081000
      7 C13          1.4650     3.2690    -1.8890 ca         1 HRW      -0.127000
      8 C12          2.8230     3.4860    -2.0150 ca         1 HRW      -0.089000
      9 C16          3.2610     1.4510    -0.8330 ca         1 HRW      -0.073000
     10 C11          3.7220     2.5780    -1.4890 ca         1 HRW      -0.093300
     11 C10          5.2030     2.8160    -1.6270 c3         1 HRW       0.061100
     12 C9           5.6980     3.6060    -0.4430 cc         1 HRW      -0.129600
     13 C8           6.2390     3.1300     0.6720 cd         1 HRW       0.012000
     14 N3           6.6130     4.0420     1.6080 na         1 HRW      -0.654000
     15 S1           5.6870     5.3680    -0.2490 ss         1 HRW       0.006200
     16 C7           6.4000     5.3460     1.3180 cc         1 HRW       0.679100
     17 N2           6.6880     6.4000     2.0870 nf         1 HRW      -0.784100
     18 C6           6.4170     7.6260     1.6590 c          1 HRW       0.721500
     19 O            5.9060     7.7910     0.5680 o          1 HRW      -0.620100
     20 C5           6.7420     8.8140     2.5270 c3         1 HRW      -0.070300
     21 S            6.2570    10.3350     1.6720 ss         1 HRW      -0.180400
     22 C4           6.7360    11.5290     2.8770 ca         1 HRW       0.780300
     23 N            6.5420    12.8160     2.6250 nb         1 HRW      -0.748500
     24 C3           6.8900    13.7370     3.5080 ca         1 HRW       0.479600
     25 C18          6.6650    15.1980     3.2140 c3         1 HRW      -0.144900
     26 C2           7.4640    13.3420     4.7060 ca         1 HRW      -0.397600
     27 N1           7.2770    11.1180     4.0150 nb         1 HRW      -0.748500
     28 C1           7.6530    11.9890     4.9370 ca         1 HRW       0.479600
     29 C            8.2740    11.5140     6.2260 c3         1 HRW      -0.144900
     30 H14         -0.0610     1.9690    -1.1380 ha         1 HRW       0.152000
     31 H16          3.9650     0.7380    -0.4210 ha         1 HRW       0.141000
     32 H13          0.7610     3.9820    -2.3010 ha         1 HRW       0.144000
     33 H12          3.1850     4.3700    -2.5270 ha         1 HRW       0.142000
     34 H101         5.7200     1.8640    -1.6680 hc         1 HRW       0.064700
     35 H102         5.3960     3.3700    -2.5380 hc         1 HRW       0.064700
     36 H8           6.6640     2.1340     0.6850 h4         1 HRW       0.178000
     37 H3           7.0260     3.7600     2.4750 hn         1 HRW       0.469800
     38 H51C         6.2010     8.7370     3.4620 h1         1 HRW       0.100200
     39 H52C         7.8070     8.8360     2.7250 h1         1 HRW       0.100200
     40 H181         7.6140    15.7200     3.2290 hc         1 HRW       0.056867
     41 H182         6.0080    15.6200     3.9650 hc         1 HRW       0.056867
     42 H183         6.2100    15.3040     2.2360 hc         1 HRW       0.056867
     43 H2           7.7610    14.0760     5.4460 ha         1 HRW       0.144000
     44 HC1          7.7030    11.8950     7.0640 hc         1 HRW       0.056867
     45 HC2          8.2730    10.4310     6.2500 hc         1 HRW       0.056867
     46 HC3          9.2940    11.8760     6.2900 hc         1 HRW       0.056867
@<TRIPOS>BOND
     1     1     2 1
     2     2     3 1
     3     2     4 1
     4     2     5 1
     5     5     6 ar
     6     5     9 ar
     7     6     7 ar
     8     7     8 ar
     9     8    10 ar
    10     9    10 ar
    11    10    11 1
    12    11    12 1
    13    12    13 2
    14    12    15 1
    15    13    14 1
    16    14    16 1
    17    15    16 1
    18    16    17 2
    19    17    18 1
    20    18    19 2
    21    18    20 1
    22    20    21 1
    23    21    22 1
    24    22    23 ar
    25    22    27 ar
    26    23    24 ar
    27    24    25 1
    28    24    26 ar
    29    26    28 ar
    30    27    28 ar
    31    28    29 1
    32     6    30 1
    33     9    31 1
    34     7    32 1
    35     8    33 1
    36    11    34 1
    37    11    35 1
    38    13    36 1
    39    14    37 1
    40    20    38 1
    41    20    39 1
    42    25    40 1
    43    25    41 1
    44    25    42 1
    45    26    43 1
    46    29    44 1
    47    29    45 1
    48    29    46 1
@<TRIPOS>SUBSTRUCTURE
     1 HRW         1 TEMP              0 ****  ****    0 ROOT
