@<TRIPOS>MOLECULE
molecule
   27    27     1     0     0
SMALL
bcc


@<TRIPOS>ATOM
      1 O17          0.0000     0.0000     0.0000 o          1 HRX      -0.930500
      2 P14          1.6100     0.0000     0.0000 p5         1 HRX       1.101200
      3 O16          2.1030     0.0000     1.3960 o          1 HRX      -0.930500
      4 O15          2.1470    -1.3140    -0.7590 o          1 HRX      -0.930500
      5 C8           2.2180     1.4890    -0.8590 c3         1 HRX      -0.145600
      6 P9           4.0400     1.4900    -0.8580 p5         1 HRX       1.101200
      7 O11          4.5770     1.4890     0.6600 o          1 HRX      -0.930500
      8 O12          4.5350     0.2820    -1.5560 o          1 HRX      -0.930500
      9 O10          4.5770     2.8040    -1.6170 o          1 HRX      -0.930500
     10 O13          1.7410     1.4890    -2.2060 oh         1 HRX      -0.643800
     11 C7           1.7070     2.7380    -0.1380 c3         1 HRX       0.008600
     12 C9           2.2160     3.9870    -0.8580 c3         1 HRX      -0.098100
     13 C6           1.7140     5.2170    -0.1480 ca         1 HRX      -0.111600
     14 C5           2.4560     5.7900     0.8740 ca         1 HRX      -0.101000
     15 C2           1.9540     6.9220     1.4990 ca         1 HRX      -0.282300
     16 C3           0.7400     7.4370     1.0860 ca         1 HRX       0.287200
     17 N4           0.0610     6.8660     0.1110 nb         1 HRX      -0.741000
     18 C1           0.5100     5.7920    -0.5100 ca         1 HRX       0.354200
     19 H5           1.7420     0.6080    -2.5400 ho         1 HRX       0.387000
     20 H6           2.0680     2.7370     0.8840 hc         1 HRX       0.029200
     21 H7           0.6240     2.7370    -0.1380 hc         1 HRX       0.029200
     22 H8           3.3000     3.9870    -0.8580 hc         1 HRX       0.100200
     23 H9           1.8550     3.9870    -1.8800 hc         1 HRX       0.100200
     24 H10          3.4050     5.3640     1.1760 ha         1 HRX       0.166000
     25 H11          2.5070     7.3960     2.3010 ha         1 HRX       0.078000
     26 H12          0.3400     8.3200     1.5710 h4         1 HRX      -0.051900
     27 H13         -0.0760     5.3500    -1.3070 h4         1 HRX       0.016100
@<TRIPOS>BOND
     1     8     6 1
     2    17    18 ar
     3    17    16 ar
     4    18    13 ar
     5    16    15 ar
     6     9     6 1
     7     6     7 1
     8     6     5 1
     9    10     5 1
    10    11     5 1
    11    11    12 1
    12    13    12 1
    13    13    14 ar
    14    15    14 ar
    15     5     2 1
    16     2     3 1
    17     2     4 1
    18     2     1 1
    19    10    19 1
    20    11    20 1
    21    11    21 1
    22    12    22 1
    23    12    23 1
    24    14    24 1
    25    15    25 1
    26    16    26 1
    27    18    27 1
@<TRIPOS>SUBSTRUCTURE
     1 HRX         1 TEMP              0 ****  ****    0 ROOT
