@<TRIPOS>MOLECULE
HRX
   27    27     1     0     0
SMALL
bcc


@<TRIPOS>ATOM
      1 O17         1.1880    0.3330    1.5870 o         1 HRX     -0.933500
      2 P14         1.4090    0.0170    0.1300 p5        1 HRX      1.212700
      3 O16         2.0120   -1.3460   -0.0740 o         1 HRX     -0.933500
      4 O15         0.1820    0.2510   -0.7270 o         1 HRX     -0.933500
      5 C8          2.6940    1.4150   -0.6420 c3        1 HRX     -0.261600
      6 P9          4.3830    1.4440   -0.8550 p5        1 HRX      1.422600
      7 O11         5.1590    1.7280    0.3950 o         1 HRX     -0.925500
      8 O12         5.0330    0.4500   -1.7640 o         1 HRX     -0.925500
      9 O10         4.5880    2.8550   -1.7420 oh        1 HRX     -0.816400
     10 O13         2.2010    1.4070   -1.9720 oh        1 HRX     -0.655800
     11 C7          2.2590    2.6350    0.1460 c3        1 HRX     -0.040200
     12 C9          1.6770    3.7800   -0.6110 c2        1 HRX     -0.221200
     13 C6          1.3850    5.0150   -0.1360 cc        1 HRX     -0.152600
     14 C5          1.6110    5.4650    1.2290 cc        1 HRX     -0.215000
     15 C2          1.2870    6.7350    1.6070 cd        1 HRX     -0.213600
     16 C3          0.7180    7.6470    0.6730 cd        1 HRX     -0.071800
     17 N4          0.4780    7.2860   -0.6180 n1        1 HRX     -0.484800
     18 C1          0.7920    6.0580   -0.9880 cc        1 HRX      0.134200
     19 H5          1.2360    1.2870   -1.9380 ho        1 HRX      0.408000
     20 H6          1.4960    2.3360    0.9250 hc        1 HRX      0.049200
     21 H7          3.1580    3.0070    0.7210 hc        1 HRX      0.049200
     22 H8          3.7680    3.3190   -1.8520 ho        1 HRX      0.399000
     23 H9          1.4480    3.5620   -1.6680 ha        1 HRX      0.094000
     24 H10         2.0480    4.7400    1.9270 ha        1 HRX      0.109000
     25 H11         1.4570    7.0800    2.6380 ha        1 HRX      0.032000
     26 H12         0.4520    8.6690    0.9590 h4        1 HRX     -0.078200
     27 H13         0.5850    5.7950   -2.0370 h4        1 HRX     -0.048200
@<TRIPOS>BOND
     1    1    2 1   
     2    2    3 1   
     3    2    4 1   
     4    2    5 1   
     5    5    6 1   
     6    5   10 1   
     7    5   11 1   
     8    6    7 1   
     9    6    8 1   
    10    6    9 1   
    11    9   22 1   
    12   10   19 1   
    13   11   12 1   
    14   11   20 1   
    15   11   21 1   
    16   12   13 2   
    17   12   23 1   
    18   13   14 1   
    19   13   18 1   
    20   14   15 2   
    21   14   24 1   
    22   15   16 1   
    23   15   25 1   
    24   16   17 2   
    25   16   26 1   
    26   17   18 2   
    27   18   27 1   
@<TRIPOS>SUBSTRUCTURE
     1 HRX         1 TEMP              0 ****  ****    0 ROOT
