@<TRIPOS>MOLECULE
HRY
   72    76     1     0     0
SMALL
bcc


@<TRIPOS>ATOM
      1 N1           0.0000     0.0000     0.0000 nb         1 HRY      -0.736000
      2 N2          -0.0690    -0.0010    -2.3250 nb         1 HRY      -0.739000
      3 C1           7.6680     1.0840    -0.6210 cc         1 HRY      -0.237200
      4 C2           6.3070     1.1060    -0.6150 cd         1 HRY      -0.013000
      5 C3           5.6040    -0.0000    -0.0910 cd         1 HRY      -0.132200
      6 C4           6.2950    -1.0700     0.4020 cc         1 HRY      -0.130400
      7 C6           4.1210    -0.0010    -0.0740 ca         1 HRY      -0.062800
      8 C7           3.4380    -0.0000     1.1510 ca         1 HRY      -0.058000
      9 C8           2.0780     0.0000     1.1930 ca         1 HRY      -0.170300
     10 C            8.3450    -0.0350    -0.1040 c          1 HRY       0.581700
     11 N            7.6510    -1.0780     0.3910 n          1 HRY       0.124000
     12 C20          3.4190    -0.0020    -1.2690 ca         1 HRY      -0.049000
     13 C19          2.0220    -0.0010    -1.2420 ca         1 HRY      -0.339600
     14 C9           1.3420     0.0000     0.0000 ca         1 HRY       0.469600
     15 C10         -0.6690     0.0000    -1.1370 ca         1 HRY       0.759900
     16 N4          -2.0520     0.0010    -1.0930 nh         1 HRY      -0.439300
     17 C21         -2.6020     1.1410    -1.8390 c3         1 HRY       0.098800
     18 C22         -4.1300     1.0620    -1.8330 c3         1 HRY       0.148800
     19 N5          -4.6120     1.0630    -0.4450 n3         1 HRY      -0.539600
     20 C23         -4.2930     2.3320     0.2220 c3         1 HRY       0.125800
     21 C24         -5.0200     2.3980     1.5680 c3         1 HRY       0.144800
     22 N6          -4.7000     3.6680     2.2340 n3         1 HRY      -0.546600
     23 C25         -5.5560     3.8750     3.4100 c3         1 HRY       0.181600
     24 C26         -3.2790     3.7270     2.6010 c3         1 HRY       0.181600
     25 C27         -4.0620    -0.0780     0.3020 c3         1 HRY       0.148800
     26 C28         -2.5340     0.0020     0.2950 c3         1 HRY       0.098800
     27 C11          1.2500    -0.0010    -2.4330 ca         1 HRY       0.579200
     28 N3           1.8590    -0.0030    -3.6700 nu         1 HRY      -0.478900
     29 C12          1.0440    -0.0040    -4.8870 c3         1 HRY       0.222100
     30 C13          1.9450    -0.0060    -6.0950 ca         1 HRY      -0.120300
     31 C18          2.3570    -1.2050    -6.6470 ca         1 HRY      -0.083000
     32 C17          3.1840    -1.2060    -7.7560 ca         1 HRY      -0.037600
     33 Cl           3.7020    -2.7100    -8.4510 cl         1 HRY      -0.017400
     34 C14          2.3540     1.1900    -6.6530 ca         1 HRY      -0.084000
     35 C15          3.1750     1.1900    -7.7650 ca         1 HRY      -0.090000
     36 C16          3.5990    -0.0080    -8.3110 ca         1 HRY      -0.088000
     37 H1           8.2260     1.9230    -1.0190 ha         1 HRY       0.137000
     38 H2           5.7700     1.9600    -1.0090 ha         1 HRY       0.110000
     39 H3           5.7560    -1.9190     0.8050 h4         1 HRY       0.134000
     40 H4           7.6610    -2.9670     1.2920 h1         1 HRY       0.026033
     41 H5           9.0160    -1.9190     1.7360 h1         1 HRY       0.026033
     42 H6           8.9730    -2.6810     0.1400 h1         1 HRY       0.026033
     43 H7           4.0010     0.0030     2.0770 ha         1 HRY       0.106000
     44 H8           1.5650     0.0000     2.1470 ha         1 HRY       0.121000
     45 H9           3.9420    -0.1550    -2.2050 ha         1 HRY       0.107000
     46 H10         -2.2440     1.1080    -2.8610 h1         1 HRY       0.034450
     47 H11         -2.2870     2.0650    -1.3700 h1         1 HRY       0.034450
     48 H12         -4.4450     0.1480    -2.3230 h1         1 HRY       0.032450
     49 H13         -4.5370     1.9180    -2.3570 h1         1 HRY       0.032450
     50 H15         -4.6140     3.1580    -0.4020 h1         1 HRY       0.023700
     51 H16         -3.2240     2.3970     0.3850 h1         1 HRY       0.023700
     52 H17         -4.7000     1.5720     2.1920 h1         1 HRY       0.017700
     53 H18         -6.0890     2.3350     1.4040 h1         1 HRY       0.017700
     54 H20         -6.5960     3.8250     3.1130 h1         1 HRY       0.001200
     55 H21         -5.3530     3.1040     4.1440 h1         1 HRY       0.001200
     56 H22         -5.3490     4.8470     3.8400 h1         1 HRY       0.001200
     57 H23         -2.9570     2.7560     2.9560 h1         1 HRY       0.001200
     58 H24         -2.6940     4.0080     1.7340 h1         1 HRY       0.001200
     59 H25         -3.1390     4.4620     3.3850 h1         1 HRY       0.001200
     60 H26         -4.3760    -1.0010    -0.1690 h1         1 HRY       0.032450
     61 H27         -4.4200    -0.0460     1.3240 h1         1 HRY       0.032450
     62 H28         -2.1260    -0.8540     0.8190 h1         1 HRY       0.034450
     63 H29         -2.2190     0.9160     0.7850 h1         1 HRY       0.034450
     64 H30          2.8570    -0.0240    -3.7360 hn         1 HRY       0.304800
     65 H31          0.4180    -0.8880    -4.9020 h1         1 HRY       0.034200
     66 H32          0.4190     0.8810    -4.9040 h1         1 HRY       0.034200
     67 H33          1.9910    -2.1410    -6.2440 ha         1 HRY       0.121000
     68 H34          2.0230     2.1290    -6.2260 ha         1 HRY       0.111000
     69 H35          3.4980     2.1280    -8.2010 ha         1 HRY       0.110000
     70 H36          4.2440    -0.0080    -9.1810 ha         1 HRY       0.117000
     71 C5           8.3720    -2.2370     0.9250 c3         1 HRY       0.048300
     72 O            9.5650    -0.0640    -0.1090 o          1 HRY      -0.701500
@<TRIPOS>BOND
     1     1    14 ar  
     2     1    15 ar  
     3     2    15 ar  
     4     2    27 ar  
     5     3     4 2   
     6     3    10 1   
     7     3    37 1   
     8     4     5 1   
     9     4    38 1   
    10     5     6 2   
    11     5     7 1   
    12     6    11 1   
    13     6    39 1   
    14     7     8 ar  
    15     7    12 ar  
    16     8     9 ar  
    17     8    43 1   
    18     9    14 ar  
    19     9    44 1   
    20    10    11 1   
    21    10    72 2   
    22    11    71 1   
    23    12    13 ar  
    24    12    45 1   
    25    13    14 ar  
    26    13    27 ar  
    27    15    16 1   
    28    16    17 1   
    29    16    26 1   
    30    17    18 1   
    31    17    46 1   
    32    17    47 1   
    33    18    19 1   
    34    18    48 1   
    35    18    49 1   
    36    19    20 1   
    37    19    25 1   
    38    20    21 1   
    39    20    50 1   
    40    20    51 1   
    41    21    22 1   
    42    21    52 1   
    43    21    53 1   
    44    22    23 1   
    45    22    24 1   
    46    23    54 1   
    47    23    55 1   
    48    23    56 1   
    49    24    57 1   
    50    24    58 1   
    51    24    59 1   
    52    25    26 1   
    53    25    60 1   
    54    25    61 1   
    55    26    62 1   
    56    26    63 1   
    57    27    28 1   
    58    28    29 1   
    59    28    64 1   
    60    29    30 1   
    61    29    65 1   
    62    29    66 1   
    63    30    31 ar  
    64    30    34 ar  
    65    31    32 ar  
    66    31    67 1   
    67    32    33 1   
    68    32    36 ar  
    69    34    35 ar  
    70    34    68 1   
    71    35    36 ar  
    72    35    69 1   
    73    36    70 1   
    74    40    71 1   
    75    41    71 1   
    76    42    71 1   
@<TRIPOS>SUBSTRUCTURE
     1 HRY         1 TEMP              0 ****  ****    0 ROOT
