@<TRIPOS>MOLECULE
molecule
   38    38     1     0     0
SMALL
bcc


@<TRIPOS>ATOM
      1 N1           0.0000     0.0000     0.0000 n3         1 HS1      -0.795500
      2 C2          -0.3540    -3.6480    -3.0330 ca         1 HS1      -0.208500
      3 N2           3.2930    -1.6610     0.1450 ne         1 HS1      -0.091100
      4 C4          -1.4960    -4.3140    -2.6140 ca         1 HS1       0.197100
      5 C5          -2.2280    -2.3360    -1.4750 ca         1 HS1       0.011500
      6 C6          -0.8790     1.4370     1.7730 c3         1 HS1       0.129100
      7 O1          -2.1110     0.5490    -1.1540 o          1 HS1      -0.637300
      8 O2           0.0540     0.5560    -2.4030 o          1 HS1      -0.637300
      9 O3          -1.6970    -5.6110    -2.9680 os         1 HS1      -0.322900
     10 O4          -1.8820     2.7840     3.5100 oh         1 HS1      -0.612800
     11 O7           1.1830    -2.3300     0.2040 o          1 HS1      -0.471100
     12 C9           1.9670    -1.4150     0.1240 c          1 HS1       0.547500
     13 O5           3.6990    -2.8040     0.2460 o          1 HS1      -0.065300
     14 C11          1.4650     0.0000     0.0000 c3         1 HS1       0.167800
     15 C8          -0.7320     0.0000     1.2690 c3         1 HS1       0.246800
     16 O6           0.4160     2.0060     1.9710 oh         1 HS1      -0.614800
     17 C12         -1.6440     1.4370     3.0980 c3         1 HS1       0.111400
     18 S1          -0.8280     0.0060    -1.4340 sy         1 HS1       1.427200
     19 C3          -1.0880    -1.6750    -1.8940 ca         1 HS1      -0.348500
     20 C7          -2.4340    -3.6540    -1.8330 ca         1 HS1      -0.208500
     21 C10         -2.8960    -6.2330    -2.5000 c3         1 HS1       0.126700
     22 C1          -0.1520    -2.3300    -2.6730 ca         1 HS1       0.011500
     23 H2           0.3800    -4.1610    -3.6430 ha         1 HS1       0.146000
     24 H5          -2.9590    -1.8200    -0.8650 ha         1 HS1       0.146500
     25 H6          -1.4230     2.0230     1.0420 h1         1 HS1       0.064700
     26 HO4         -2.4480     2.7870     4.2650 ho         1 HS1       0.409000
     27 H11          1.8260     0.5860     0.8370 h1         1 HS1       0.112700
     28 H11A         1.8260     0.4320    -0.9260 h1         1 HS1       0.112700
     29 H8          -0.1880    -0.5860     2.0000 h1         1 HS1       0.066200
     30 H8A         -1.7140    -0.4320     1.1190 h1         1 HS1       0.066200
     31 HO6          0.3520     2.9470     1.9610 ho         1 HS1       0.421000
     32 H12         -1.0590     0.9260     3.8540 h1         1 HS1       0.031200
     33 H12A        -2.5910     0.9260     2.9690 h1         1 HS1       0.031200
     34 H7          -3.3280    -4.1710    -1.5050 ha         1 HS1       0.146000
     35 H10         -3.7540    -5.6920    -2.8790 h1         1 HS1       0.045700
     36 H10A        -2.9310    -7.2570    -2.8510 h1         1 HS1       0.045700
     37 H10B        -2.9100    -6.2210    -1.4170 h1         1 HS1       0.045700
     38 H1           0.7400    -1.8100    -3.0000 ha         1 HS1       0.146500
@<TRIPOS>BOND
     1     1    14 1
     2     1    15 1
     3     1    18 1
     4     2     4 ar
     5     2    22 ar
     6     3    12 1
     7     3    13 2
     8     4     9 1
     9     4    20 ar
    10     5    19 ar
    11     5    20 ar
    12     6    15 1
    13     6    16 1
    14     6    17 1
    15     7    18 2
    16     8    18 2
    17     9    21 1
    18    10    17 1
    19    11    12 2
    20    12    14 1
    21    18    19 1
    22    19    22 ar
    23     2    23 1
    24     5    24 1
    25     6    25 1
    26    10    26 1
    27    14    27 1
    28    14    28 1
    29    15    29 1
    30    15    30 1
    31    16    31 1
    32    17    32 1
    33    17    33 1
    34    20    34 1
    35    21    35 1
    36    21    36 1
    37    21    37 1
    38    22    38 1
@<TRIPOS>SUBSTRUCTURE
     1 HS1         1 TEMP              0 ****  ****    0 ROOT
