@<TRIPOS>MOLECULE
molecule
   31    31     1     0     0
SMALL
bcc


@<TRIPOS>ATOM
      1 O3           0.0000     0.0000     0.0000 o          1 HS3      -0.453100
      2 C8           1.2080     0.0000     0.0000 c          1 HS3       0.587500
      3 N1           1.8820     0.0060    -1.1670 ne         1 HS3      -0.096100
      4 O6           1.2730     0.0110    -2.2220 o          1 HS3      -0.057300
      5 C9           1.9620     0.0000     1.3050 c3         1 HS3       0.192500
      6 C7           2.8410     1.2490     1.3860 c3         1 HS3       0.118400
      7 O4           2.0330     2.4130     1.1940 oh         1 HS3      -0.606800
      8 N2           1.0090    -0.0000     2.4190 n7         1 HS3      -0.898100
      9 S1           1.3640    -0.8240     3.8110 sy         1 HS3       1.429200
     10 O1           0.2740    -0.6040     4.6960 o          1 HS3      -0.631800
     11 O2           1.7940    -2.1180     3.4140 o          1 HS3      -0.631800
     12 C3           2.7620    -0.0370     4.5400 ca         1 HS3      -0.360500
     13 C6           2.5810     0.9970     5.4400 ca         1 HS3       0.006500
     14 C5           3.6760     1.6150     6.0120 ca         1 HS3      -0.214000
     15 C4           4.9580     1.1980     5.6830 ca         1 HS3       0.194100
     16 C2           5.1360     0.1610     4.7810 ca         1 HS3      -0.214000
     17 C1           4.0380    -0.4580     4.2150 ca         1 HS3       0.006500
     18 O5           6.0370     1.8050     6.2450 os         1 HS3      -0.321900
     19 C10          7.3250     1.3230     5.8600 c3         1 HS3       0.125700
     20 H9           2.5840    -0.8840     1.3620 h1         1 HS3       0.103700
     21 H7           3.6010     1.2060     0.6160 h1         1 HS3       0.043200
     22 H7A          3.3150     1.2950     2.3590 h1         1 HS3       0.043200
     23 HO4          2.5880     3.1720     1.1190 ho         1 HS3       0.414000
     24 HN2          0.1300     0.4690     2.3250 hn         1 HS3       0.479800
     25 H6           1.5800     1.3230     5.6960 ha         1 HS3       0.153500
     26 H5           3.5340     2.4250     6.7170 ha         1 HS3       0.147500
     27 H2           6.1360    -0.1690     4.5240 ha         1 HS3       0.147500
     28 H1           4.1780    -1.2690     3.5100 ha         1 HS3       0.153500
     29 H10          8.0910     1.8820     6.3840 h1         1 HS3       0.046367
     30 H10A         7.4090     0.2730     6.1110 h1         1 HS3       0.046367
     31 H10B         7.4540     1.4500     4.7920 h1         1 HS3       0.046367
@<TRIPOS>BOND
     1     1     2 2
     2     2     3 1
     3     2     5 1
     4     3     4 2
     5     5     6 1
     6     5     8 1
     7     6     7 1
     8     8     9 1
     9     9    10 2
    10     9    11 2
    11     9    12 1
    12    12    13 ar
    13    12    17 ar
    14    13    14 ar
    15    14    15 ar
    16    15    16 ar
    17    15    18 1
    18    16    17 ar
    19    18    19 1
    20     5    20 1
    21     6    21 1
    22     6    22 1
    23     7    23 1
    24     8    24 1
    25    13    25 1
    26    14    26 1
    27    16    27 1
    28    17    28 1
    29    19    29 1
    30    19    30 1
    31    19    31 1
@<TRIPOS>SUBSTRUCTURE
     1 HS3         1 TEMP              0 ****  ****    0 ROOT
