@<TRIPOS>MOLECULE
HS4
   33    34     1     0     0
SMALL
bcc


@<TRIPOS>ATOM
      1 O4           0.0000     0.0000     0.0000 o          1 HS4      -0.581800
      2 S1           1.4200     0.0000     0.0000 sy         1 HS4       1.049200
      3 O3           2.1980     0.0000     1.1890 o          1 HS4      -0.581800
      4 N1           1.8880    -1.3320    -0.8650 n7         1 HS4      -0.589100
      5 C12          3.3120    -1.6040    -1.0800 c3         1 HS4       0.166800
      6 C14          3.4860    -3.0230    -1.5560 c          1 HS4       0.588500
      7 O1           2.5210    -3.7350    -1.6990 o          1 HS4      -0.494100
      8 N2           4.7200    -3.4980    -1.8190 ne         1 HS4       0.016900
      9 O2           4.8610    -4.6450    -2.2030 o          1 HS4      -0.137300
     10 C13          1.9180     1.4190    -0.9190 ca         1 HS4      -0.174500
     11 C10          1.0570     1.9740    -1.8490 ca         1 HS4       0.009000
     12 C5           1.4420     3.0860    -2.5700 ca         1 HS4      -0.136000
     13 C11          3.1650     1.9770    -0.7040 ca         1 HS4       0.009000
     14 C8           3.5600     3.0890    -1.4210 ca         1 HS4      -0.136000
     15 C2           2.6990     3.6490    -2.3620 cp         1 HS4       0.034000
     16 C1           3.1180     4.8440    -3.1350 cp         1 HS4      -0.055000
     17 C4           4.3740     5.4070    -2.9260 ca         1 HS4      -0.088500
     18 C7           4.7590     6.5190    -3.6490 ca         1 HS4      -0.099000
     19 C9           3.8990     7.0740    -4.5790 ca         1 HS4      -0.089000
     20 C6           2.6490     6.5180    -4.7910 ca         1 HS4      -0.099000
     21 C3           2.2560     5.4040    -4.0780 ca         1 HS4      -0.088500
     22 HN1          1.1980    -1.9510    -1.2410 hn         1 HS4       0.371800
     23 H12          3.7010    -0.9220    -1.8270 h1         1 HS4       0.042200
     24 H12A         3.8500    -1.4660    -0.1500 h1         1 HS4       0.042200
     25 H10          0.0800     1.5360    -2.0110 ha         1 HS4       0.122000
     26 H5           0.7680     3.5180    -3.3000 ha         1 HS4       0.119000
     27 H11          3.8340     1.5410     0.0280 ha         1 HS4       0.122000
     28 H8           4.5380     3.5240    -1.2530 ha         1 HS4       0.119000
     29 H4           5.0490     4.9740    -2.1980 ha         1 HS4       0.111500
     30 H7           5.7360     6.9570    -3.4870 ha         1 HS4       0.105000
     31 H9           4.2040     7.9470    -5.1430 ha         1 HS4       0.104000
     32 H6           1.9800     6.9560    -5.5220 ha         1 HS4       0.105000
     33 H3           1.2780     4.9710    -4.2440 ha         1 HS4       0.111500
@<TRIPOS>BOND
     1     1     2 2   
     2     2     3 2   
     3     2     4 1   
     4     2    10 1   
     5     4     5 1   
     6     4    22 1   
     7     5     6 1   
     8     5    23 1   
     9     5    24 1   
    10     6     7 2   
    11     6     8 1   
    12     8     9 2   
    13    10    11 ar  
    14    10    13 ar  
    15    11    12 ar  
    16    11    25 1   
    17    12    15 ar  
    18    12    26 1   
    19    13    14 ar  
    20    13    27 1   
    21    14    15 ar  
    22    14    28 1   
    23    15    16 1   
    24    16    17 ar  
    25    16    21 ar  
    26    17    18 ar  
    27    17    29 1   
    28    18    19 ar  
    29    18    30 1   
    30    19    20 ar  
    31    19    31 1   
    32    20    21 ar  
    33    20    32 1   
    34    21    33 1   
@<TRIPOS>SUBSTRUCTURE
     1 HS4         1 TEMP              0 ****  ****    0 ROOT
