@<TRIPOS>MOLECULE
HS5
   30    30     1     0     0
SMALL
bcc


@<TRIPOS>ATOM
      1 O5           0.0000     0.0000     0.0000 o          1 HS5      -0.582300
      2 S1           1.4200     0.0000     0.0000 sy         1 HS5       1.059200
      3 O4           2.1980     0.0000     1.1890 o          1 HS5      -0.582300
      4 N2           1.8880    -1.3340    -0.8630 n3         1 HS5      -0.502500
      5 C10          3.2110    -1.9230    -0.6410 c3         1 HS5       0.174800
      6 C9           3.0970    -3.0510     0.3520 c          1 HS5       0.574500
      7 O3           2.0220    -3.3340     0.8260 o          1 HS5      -0.489100
      8 N1           4.1960    -3.7450     0.7120 ne         1 HS5       0.017900
      9 O2           4.1040    -4.6560     1.5150 o          1 HS5      -0.146300
     10 C8           0.9790    -1.9240    -1.8490 c3         1 HS5       0.213800
     11 C6           1.2990    -1.3650    -3.2370 c3         1 HS5       0.191400
     12 O1           2.6070    -1.7860    -3.6300 oh         1 HS5      -0.600800
     13 C3           1.9180     1.4170    -0.9200 ca         1 HS5      -0.179500
     14 C5           1.0600     1.9730    -1.8510 ca         1 HS5       0.031500
     15 C7           1.4500     3.0850    -2.5740 ca         1 HS5      -0.164500
     16 C4           2.7000     3.6420    -2.3640 ca         1 HS5       0.158900
     17 F1           3.0810     4.7300    -3.0700 f          1 HS5      -0.123900
     18 C2           3.5580     3.0860    -1.4320 ca         1 HS5      -0.164500
     19 C1           3.1640     1.9770    -0.7070 ca         1 HS5       0.031500
     20 H10          3.8830    -1.1670    -0.2530 h1         1 HS5       0.054700
     21 H10A         3.5990    -2.3040    -1.5780 h1         1 HS5       0.054700
     22 H8           1.1030    -3.0000    -1.8570 h1         1 HS5       0.043200
     23 H8A         -0.0440    -1.6800    -1.5890 h1         1 HS5       0.043200
     24 H6           0.5720    -1.7320    -3.9510 h1         1 HS5      -0.004800
     25 H6A          1.2620    -0.2820    -3.2080 h1         1 HS5      -0.004800
     26 HO1          2.6560    -1.8240    -4.5710 ho         1 HS5       0.395000
     27 H5           0.0820     1.5370    -2.0150 ha         1 HS5       0.125000
     28 H7           0.7780     3.5200    -3.3030 ha         1 HS5       0.125500
     29 H2           4.5350     3.5230    -1.2660 ha         1 HS5       0.125500
     30 H1           3.8350     1.5410     0.0230 ha         1 HS5       0.125000
@<TRIPOS>BOND
     1     1     2 2   
     2     2     3 2   
     3     2     4 1   
     4     2    13 1   
     5     4     5 1   
     6     4    10 1   
     7     5     6 1   
     8     5    20 1   
     9     5    21 1   
    10     6     7 2   
    11     6     8 1   
    12     8     9 2   
    13    10    11 1   
    14    10    22 1   
    15    10    23 1   
    16    11    12 1   
    17    11    24 1   
    18    11    25 1   
    19    12    26 1   
    20    13    14 ar  
    21    13    19 ar  
    22    14    15 ar  
    23    14    27 1   
    24    15    16 ar  
    25    15    28 1   
    26    16    17 1   
    27    16    18 ar  
    28    18    19 ar  
    29    18    29 1   
    30    19    30 1   
@<TRIPOS>SUBSTRUCTURE
     1 HS5         1 TEMP              0 ****  ****    0 ROOT
