@<TRIPOS>MOLECULE
molecule
   23    23     1     0     0
SMALL
bcc


@<TRIPOS>ATOM
      1 O4           0.0000     0.0000     0.0000 o          1 HS6      -0.626300
      2 S1           1.4210     0.0000     0.0000 sy         1 HS6       1.427200
      3 O3           2.1990     0.0000     1.1890 o          1 HS6      -0.626300
      4 N1           1.8880    -1.3340    -0.8640 n7         1 HS6      -0.912100
      5 C6           3.3110    -1.6050    -1.0790 c3         1 HS6       0.173800
      6 C8           3.4860    -3.0250    -1.5520 c          1 HS6       0.577500
      7 O2           2.5200    -3.7360    -1.6960 o          1 HS6      -0.465100
      8 N2           4.7190    -3.5000    -1.8160 ne         1 HS6      -0.092100
      9 O1           4.8600    -4.6480    -2.1990 o          1 HS6      -0.052300
     10 C3           1.9190     1.4180    -0.9200 ca         1 HS6      -0.341500
     11 C1           1.0600     1.9740    -1.8500 ca         1 HS6      -0.003000
     12 C5           3.1650     1.9780    -0.7070 ca         1 HS6      -0.003000
     13 C7           3.5560     3.0900    -1.4270 ca         1 HS6      -0.190500
     14 C4           2.6990     3.6440    -2.3640 ca         1 HS6       0.190900
     15 F1           3.0810     4.7310    -3.0690 f          1 HS6      -0.129900
     16 C2           1.4490     3.0870    -2.5720 ca         1 HS6      -0.190500
     17 HN1          1.1970    -1.9340    -1.2690 hn         1 HS6       0.474800
     18 H6           3.7000    -0.9240    -1.8270 h1         1 HS6       0.082700
     19 H6A          3.8500    -1.4650    -0.1490 h1         1 HS6       0.082700
     20 H1           0.0820     1.5380    -2.0130 ha         1 HS6       0.157000
     21 H5           3.8350     1.5440     0.0250 ha         1 HS6       0.157000
     22 H7           4.5330     3.5280    -1.2600 ha         1 HS6       0.154500
     23 H2           0.7770     3.5210    -3.3030 ha         1 HS6       0.154500
@<TRIPOS>BOND
     1     1     2 2
     2     2     3 2
     3     2     4 1
     4     2    10 1
     5     4     5 1
     6     5     6 1
     7     6     7 2
     8     6     8 1
     9     8     9 2
    10    10    11 ar
    11    10    12 ar
    12    11    16 ar
    13    12    13 ar
    14    13    14 ar
    15    14    15 1
    16    14    16 ar
    17     4    17 1
    18     5    18 1
    19     5    19 1
    20    11    20 1
    21    12    21 1
    22    13    22 1
    23    16    23 1
@<TRIPOS>SUBSTRUCTURE
     1 HS6         1 TEMP              0 ****  ****    0 ROOT
