@<TRIPOS>MOLECULE
molecule
   23    23     1     0     0
SMALL
bcc


@<TRIPOS>ATOM
      1 O3           0.0000     0.0000     0.0000 o          1 HS7      -0.466100
      2 C7           1.2080     0.0000     0.0000 c          1 HS7       0.576500
      3 N2           1.8830     0.0000     1.1670 ne         1 HS7      -0.092100
      4 O4           1.2730     0.0000     2.2220 o          1 HS7      -0.054300
      5 C8           1.9620    -0.0080    -1.3060 c3         1 HS7       0.174800
      6 N1           1.0100    -0.0130    -2.4180 n7         1 HS7      -0.913100
      7 S1           1.5250     0.3500    -3.9500 sy         1 HS7       1.425200
      8 O1           0.3900     0.2260    -4.7960 o          1 HS7      -0.627800
      9 O2           2.2890     1.5440    -3.8440 o          1 HS7      -0.627800
     10 C3           2.6480    -0.9170    -4.4380 ca         1 HS7      -0.321500
     11 C1           2.1790    -2.0460    -5.0840 ca         1 HS7      -0.029000
     12 C6           3.9990    -0.7810    -4.1780 ca         1 HS7      -0.029000
     13 C5           4.8810    -1.7760    -4.5590 ca         1 HS7      -0.149500
     14 C4           4.4110    -2.9070    -5.2000 ca         1 HS7      -0.071000
     15 C2           3.0610    -3.0400    -5.4660 ca         1 HS7      -0.149500
     16 H8           2.5840    -0.8940    -1.3580 h1         1 HS7       0.082700
     17 H8A          2.5860     0.8760    -1.3680 h1         1 HS7       0.082700
     18 HN1          0.0520    -0.2510    -2.2560 hn         1 HS7       0.474800
     19 H1           1.1210    -2.1510    -5.2920 ha         1 HS7       0.150000
     20 H6           4.3680     0.1050    -3.6760 ha         1 HS7       0.150000
     21 H5           5.9390    -1.6700    -4.3530 ha         1 HS7       0.139000
     22 H4           5.1010    -3.6860    -5.4990 ha         1 HS7       0.136000
     23 H2           2.6930    -3.9260    -5.9700 ha         1 HS7       0.139000
@<TRIPOS>BOND
     1     1     2 2
     2     2     3 1
     3     2     5 1
     4     3     4 2
     5     5     6 1
     6     6     7 1
     7     7     8 2
     8     7     9 2
     9     7    10 1
    10    10    11 ar
    11    10    12 ar
    12    11    15 ar
    13    12    13 ar
    14    13    14 ar
    15    14    15 ar
    16     5    16 1
    17     5    17 1
    18     6    18 1
    19    11    19 1
    20    12    20 1
    21    13    21 1
    22    14    22 1
    23    15    23 1
@<TRIPOS>SUBSTRUCTURE
     1 HS7         1 TEMP              0 ****  ****    0 ROOT
