@<TRIPOS>MOLECULE
HSA
   25    25     1     0     0
SMALL
bcc


@<TRIPOS>ATOM
      1 CB           0.0000     0.0000     0.0000 c3         1 HSA      -0.032700
      2 CG          -0.5020    -1.2300     0.7100 cc         1 HSA       0.250600
      3 CD2         -1.2800    -1.2470     1.8090 cd         1 HSA      -0.452600
      4 ND1         -0.2590    -2.4990     0.3560 nc         1 HSA      -0.595000
      5 CE1         -0.8490    -3.3020     1.1990 cd         1 HSA       0.208400
      6 NE2         -1.4990    -2.5620     2.1200 na         1 HSA       0.250100
      7 C            2.0400     1.2470    -0.7220 c3         1 HSA       0.211400
      8 OP4          3.4680     1.2470    -0.7220 os         1 HSA      -0.462200
      9 P            3.9340     2.5820    -1.4920 p5         1 HSA       0.633900
     10 OP1          5.5420     2.6470    -1.5310 o          1 HSA      -0.722167
     11 OP2          3.3640     2.5580    -2.9980 o          1 HSA      -0.722167
     12 OP3          3.4100     3.7700    -0.7850 o          1 HSA      -0.722167
     13 N            2.0190     0.0000     1.3840 nz         1 HSA       0.054400
     14 CA           1.5300     0.0000     0.0000 c3         1 HSA      -0.104500
     15 HB1         -0.3610     0.8840     0.5110 hc         1 HSA       0.047700
     16 HB2         -0.3610     0.0000    -1.0210 hc         1 HSA       0.047700
     17 HD2         -1.6590    -0.3850     2.3450 h4         1 HSA       0.158000
     18 HE1         -0.8250    -4.3850     1.1620 h5         1 HSA       0.026100
     19 HE2         -2.0400    -2.9090     2.8870 hn         1 HSA       0.121700
     20 H41          1.6790     1.2470    -1.7430 h1         1 HSA       0.038700
     21 H42          1.6800     2.1320    -0.2120 h1         1 HSA       0.038700
     22 HN1          2.9830     0.2670     1.3970 hn         1 HSA       0.211133
     23 HN2          1.4850     0.6500     1.9260 hn         1 HSA       0.211133
     24 HA           1.8910    -0.8850    -0.5100 hx         1 HSA       0.094700
     25 HN3          1.9220    -0.9170     1.7720 hn         1 HSA       0.211133
@<TRIPOS>BOND
     1     1     2 1   
     2     1    14 1   
     3     1    15 1   
     4     1    16 1   
     5     2     3 2   
     6     2     4 1   
     7     3     6 1   
     8     3    17 1   
     9     4     5 2   
    10     5     6 1   
    11     5    18 1   
    12     6    19 1   
    13     7     8 1   
    14     7    14 1   
    15     7    20 1   
    16     7    21 1   
    17     8     9 1   
    18     9    10 1   
    19     9    11 1   
    20     9    12 1   
    21    13    14 1   
    22    13    22 1   
    23    13    23 1   
    24    13    25 1   
    25    14    24 1   
@<TRIPOS>SUBSTRUCTURE
     1 HSA         1 TEMP              0 ****  ****    0 ROOT
