@<TRIPOS>MOLECULE
molecule
   26    26     1     0     0
SMALL
bcc


@<TRIPOS>ATOM
      1 N1           0.0000     0.0000     0.0000 nz         1 HSD      -0.805600
      2 C1           1.4680     0.0000     0.0000 c3         1 HSD       0.149700
      3 C2           1.9660     0.0000     1.4160 c2         1 HSD      -0.264200
      4 C3           2.9500     0.7270     1.8390 c2         1 HSD      -0.024400
      5 C4           3.3420     0.6120     3.2890 c3         1 HSD       0.169600
      6 O1           2.4920    -0.3370     3.9380 oh         1 HSD      -0.628800
      7 C5           3.7250     1.6780     0.9740 c3         1 HSD       0.160300
      8 O2           5.1180     1.5560     1.2670 oh         1 HSD      -0.582800
      9 C6           3.4870     1.3600    -0.5030 c3         1 HSD       0.131100
     10 O3           4.0180     2.4120    -1.3130 oh         1 HSD      -0.587800
     11 C7           1.9760     1.2400    -0.7370 c3         1 HSD       0.113100
     12 O4           1.7150     1.1080    -2.1360 oh         1 HSD      -0.598800
     13 H1          -0.3340    -0.0130    -0.9430 hn         1 HSD       0.456467
     14 H2          -0.3340    -0.8100     0.4830 hn         1 HSD       0.456467
     15 H3           1.8310    -0.8870    -0.5050 hx         1 HSD       0.134700
     16 H4           1.4710    -0.6490     2.1280 ha         1 HSD       0.181000
     17 H5           3.2380     1.5770     3.7700 h1         1 HSD       0.065700
     18 H6           4.3710     0.2820     3.3600 h1         1 HSD       0.065700
     19 H7           2.7310    -0.4030     4.8480 ho         1 HSD       0.434000
     20 H8           3.3980     2.6910     1.1770 h1         1 HSD       0.073700
     21 H9           5.4950     2.4150     1.3640 ho         1 HSD       0.430000
     22 H10          3.9690     0.4220    -0.7540 h1         1 HSD       0.080700
     23 H11          4.7070     2.0710    -1.8590 ho         1 HSD       0.437000
     24 H12          1.4780     2.1210    -0.3500 h1         1 HSD       0.057700
     25 H13          1.3550     1.9150    -2.4660 ho         1 HSD       0.438000
     26 H131        -0.3340     0.8170     0.4710 hn         1 HSD       0.456467
@<TRIPOS>BOND
     1     1     2 1
     2     2     3 1
     3     3     4 2
     4     4     5 1
     5     5     6 1
     6     4     7 1
     7     7     8 1
     8     7     9 1
     9     9    10 1
    10     9    11 1
    11     2    11 1
    12    11    12 1
    13     1    13 1
    14     1    14 1
    15     2    15 1
    16     3    16 1
    17     5    17 1
    18     5    18 1
    19     6    19 1
    20     7    20 1
    21     8    21 1
    22     9    22 1
    23    10    23 1
    24    11    24 1
    25    12    25 1
    26    26     1 1
@<TRIPOS>SUBSTRUCTURE
     1 HSD         1 TEMP              0 ****  ****    0 ROOT
