@<TRIPOS>MOLECULE
HSD
   26    26     1     0     0
SMALL
bcc


@<TRIPOS>ATOM
      1 N1           0.0000     0.0000     0.0000 nz         1 HSD       0.079400
      2 C1           1.4680     0.0000     0.0000 c3         1 HSD      -0.015300
      3 C2           1.9660     0.0000     1.4160 c2         1 HSD      -0.266200
      4 C3           2.9500     0.7270     1.8390 c2         1 HSD      -0.032400
      5 C4           3.3420     0.6120     3.2890 c3         1 HSD       0.262600
      6 O1           2.4920    -0.3370     3.9380 oh         1 HSD      -0.611800
      7 C5           3.7250     1.6780     0.9740 c3         1 HSD       0.213300
      8 O2           5.1180     1.5560     1.2670 oh         1 HSD      -0.565800
      9 C6           3.4870     1.3600    -0.5030 c3         1 HSD       0.162100
     10 O3           4.0180     2.4120    -1.3130 oh         1 HSD      -0.572800
     11 C7           1.9760     1.2400    -0.7370 c3         1 HSD       0.162100
     12 O4           1.7150     1.1080    -2.1360 oh         1 HSD      -0.580800
     13 H1          -0.3340    -0.0130    -0.9430 hn         1 HSD       0.224800
     14 H2          -0.3340    -0.8100     0.4830 hn         1 HSD       0.224800
     15 H3           1.8310    -0.8870    -0.5050 hx         1 HSD       0.104700
     16 H4           1.4710    -0.6490     2.1280 ha         1 HSD       0.160000
     17 H5           3.2380     1.5770     3.7700 h1         1 HSD       0.023200
     18 H6           4.3710     0.2820     3.3600 h1         1 HSD       0.023200
     19 H7           2.7310    -0.4030     4.8480 ho         1 HSD       0.421000
     20 H8           3.3980     2.6910     1.1770 h1         1 HSD       0.032700
     21 H9           5.4950     2.4150     1.3640 ho         1 HSD       0.415000
     22 H10          3.9690     0.4220    -0.7540 h1         1 HSD       0.041700
     23 H11          4.7070     2.0710    -1.8590 ho         1 HSD       0.422000
     24 H12          1.4780     2.1210    -0.3500 h1         1 HSD       0.022700
     25 H13          1.3550     1.9150    -2.4660 ho         1 HSD       0.425000
     26 H131        -0.3340     0.8170     0.4710 hn         1 HSD       0.224800
@<TRIPOS>BOND
     1     1     2 1   
     2     1    13 1   
     3     1    14 1   
     4     1    26 1   
     5     2     3 1   
     6     2    11 1   
     7     2    15 1   
     8     3     4 2   
     9     3    16 1   
    10     4     5 1   
    11     4     7 1   
    12     5     6 1   
    13     5    17 1   
    14     5    18 1   
    15     6    19 1   
    16     7     8 1   
    17     7     9 1   
    18     7    20 1   
    19     8    21 1   
    20     9    10 1   
    21     9    11 1   
    22     9    22 1   
    23    10    23 1   
    24    11    12 1   
    25    11    24 1   
    26    12    25 1   
@<TRIPOS>SUBSTRUCTURE
     1 HSD         1 TEMP              0 ****  ****    0 ROOT
