@<TRIPOS>MOLECULE
molecule
   53    52     1     0     0
SMALL
bcc


@<TRIPOS>ATOM
      1 C1           0.0000     0.0000     0.0000 c3         1 HSF      -0.230600
      2 C2           1.5300     0.0000     0.0000 c3         1 HSF      -0.062400
      3 C3           2.0410     0.0000     1.4420 c3         1 HSF      -0.071400
      4 C4           3.5700     0.0000     1.4420 c3         1 HSF      -0.083400
      5 C5           4.0810     0.0000     2.8840 c3         1 HSF      -0.081400
      6 C6           5.6110     0.0000     2.8840 c3         1 HSF      -0.081400
      7 C7           6.1210     0.0010     4.3250 c3         1 HSF      -0.081400
      8 C8           7.6510     0.0010     4.3260 c3         1 HSF      -0.081400
      9 C9           8.1610     0.0010     5.7670 c3         1 HSF      -0.081400
     10 C10          9.6910    -0.0000     5.7670 c3         1 HSF      -0.082400
     11 C11         10.2020     0.0010     7.2090 c3         1 HSF      -0.082400
     12 C12         11.7310    -0.0000     7.2090 c3         1 HSF      -0.082400
     13 C13         12.2420     0.0020     8.6510 c3         1 HSF      -0.082400
     14 C14         13.7720     0.0010     8.6500 c3         1 HSF      -0.081400
     15 C15         14.2830     0.0010    10.0930 c3         1 HSF      -0.084400
     16 C16         15.8120     0.0010    10.0930 c3         1 HSF      -0.092100
     17 S1          -0.6050    -0.0000    -1.7090 s6         1 HSF       1.413700
     18 O1S         -0.1570     1.1420    -2.4240 o          1 HSF      -0.610300
     19 O2S         -0.5760    -1.3050    -2.2750 o          1 HSF      -0.610300
     20 F           -2.1820     0.2780    -1.5410 f          1 HSF      -0.270900
     21 H11         -0.3610     0.8850     0.5110 h1         1 HSF       0.107700
     22 H12         -0.3610    -0.8840     0.5110 h1         1 HSF       0.107700
     23 H21          1.8910    -0.8840    -0.5110 hc         1 HSF       0.057700
     24 H22          1.8910     0.8840    -0.5110 hc         1 HSF       0.057700
     25 H31          1.6800    -0.8840     1.9520 hc         1 HSF       0.046700
     26 H32          1.6800     0.8840     1.9520 hc         1 HSF       0.046700
     27 H41          3.9310     0.8840     0.9320 hc         1 HSF       0.044700
     28 H42          3.9310    -0.8840     0.9320 hc         1 HSF       0.044700
     29 H51          3.7200    -0.8840     3.3950 hc         1 HSF       0.042700
     30 H52          3.7200     0.8840     3.3950 hc         1 HSF       0.042700
     31 H61          5.9720    -0.8850     2.3740 hc         1 HSF       0.042700
     32 H62          5.9720     0.8840     2.3730 hc         1 HSF       0.042700
     33 H71          5.7600     0.8860     4.8350 hc         1 HSF       0.041700
     34 H72          5.7600    -0.8830     4.8360 hc         1 HSF       0.041700
     35 H81          8.0120    -0.8830     3.8150 hc         1 HSF       0.041700
     36 H82          8.0120     0.8850     3.8150 hc         1 HSF       0.041700
     37 H91          7.8000    -0.8830     6.2780 hc         1 HSF       0.040700
     38 H92          7.8010     0.8860     6.2780 hc         1 HSF       0.040700
     39 H101        10.0530     0.8840     5.2550 hc         1 HSF       0.041700
     40 H102        10.0520    -0.8850     5.2570 hc         1 HSF       0.041700
     41 H111         9.8410    -0.8830     7.7200 hc         1 HSF       0.040700
     42 H112         9.8420     0.8860     7.7190 hc         1 HSF       0.040700
     43 H121        12.0920     0.8830     6.6970 hc         1 HSF       0.040700
     44 H122        12.0910    -0.8860     6.6990 hc         1 HSF       0.040700
     45 H131        11.8820     0.8880     9.1610 hc         1 HSF       0.040700
     46 H132        11.8810    -0.8810     9.1630 hc         1 HSF       0.040700
     47 H141        14.1330     0.8850     8.1390 hc         1 HSF       0.040700
     48 H142        14.1320    -0.8840     8.1400 hc         1 HSF       0.040700
     49 H151        13.9220     0.8850    10.6040 hc         1 HSF       0.039700
     50 H152        13.9220    -0.8830    10.6040 hc         1 HSF       0.039700
     51 H161        16.1730     0.0010    11.1140 hc         1 HSF       0.032367
     52 H162        16.1730    -0.8830     9.5820 hc         1 HSF       0.032367
     53 H163        16.1730     0.8860     9.5820 hc         1 HSF       0.032367
@<TRIPOS>BOND
     1     1     2 1
     2     1    17 1
     3     1    21 1
     4     1    22 1
     5     2     3 1
     6     2    23 1
     7     2    24 1
     8     3     4 1
     9     3    25 1
    10     3    26 1
    11     4     5 1
    12     4    27 1
    13     4    28 1
    14     5     6 1
    15     5    29 1
    16     5    30 1
    17     6     7 1
    18     6    31 1
    19     6    32 1
    20     7     8 1
    21     7    33 1
    22     7    34 1
    23     8     9 1
    24     8    35 1
    25     8    36 1
    26     9    10 1
    27     9    37 1
    28     9    38 1
    29    10    11 1
    30    10    39 1
    31    10    40 1
    32    11    12 1
    33    11    41 1
    34    11    42 1
    35    12    13 1
    36    12    43 1
    37    12    44 1
    38    13    14 1
    39    13    45 1
    40    13    46 1
    41    14    15 1
    42    14    47 1
    43    14    48 1
    44    15    16 1
    45    15    49 1
    46    15    50 1
    47    16    51 1
    48    16    52 1
    49    16    53 1
    50    17    18 2
    51    17    19 2
    52    17    20 1
@<TRIPOS>SUBSTRUCTURE
     1 HSF         1 TEMP              0 ****  ****    0 ROOT
