@<TRIPOS>MOLECULE
HSF
   53    52     1     0     0
SMALL
bcc


@<TRIPOS>ATOM
      1 C1          0.0090    0.0250   -0.0420 c3        1 HSF     -0.385600
      2 C2          1.5230    0.0040   -0.0060 c3        1 HSF     -0.053400
      3 C3          2.0450    0.0160    1.4140 c3        1 HSF     -0.072400
      4 C4          3.5580   -0.0030    1.4370 c3        1 HSF     -0.080400
      5 C5          4.0830    0.0080    2.8560 c3        1 HSF     -0.078400
      6 C6          5.5970   -0.0060    2.8810 c3        1 HSF     -0.079400
      7 C7          6.1230    0.0040    4.3000 c3        1 HSF     -0.078400
      8 C8          7.6360   -0.0070    4.3250 c3        1 HSF     -0.079400
      9 C9          8.1620    0.0010    5.7440 c3        1 HSF     -0.079400
     10 C10         9.6760   -0.0080    5.7690 c3        1 HSF     -0.079400
     11 C11        10.2020   -0.0010    7.1880 c3        1 HSF     -0.079400
     12 C12        11.7150   -0.0070    7.2130 c3        1 HSF     -0.079400
     13 C13        12.2420    0.0000    8.6320 c3        1 HSF     -0.079400
     14 C14        13.7550   -0.0030    8.6570 c3        1 HSF     -0.079400
     15 C15        14.2830    0.0040   10.0760 c3        1 HSF     -0.080400
     16 C16        15.7900    0.0020   10.1050 c3        1 HSF     -0.092100
     17 S1         -0.5770    0.0120   -1.6330 s6        1 HSF      1.663700
     18 O1S        -0.2880    1.2010   -2.2710 o         1 HSF     -0.669800
     19 O2S        -0.3240   -1.2020   -2.2380 o         1 HSF     -0.669800
     20 F          -2.0920    0.0370   -1.4130 f         1 HSF     -0.289900
     21 H11        -0.3410    0.9290    0.5270 h1        1 HSF      0.125700
     22 H12        -0.3660   -0.8540    0.5500 h1        1 HSF      0.125700
     23 H21         1.8950   -0.9160   -0.5330 hc        1 HSF      0.060700
     24 H22         1.9200    0.9000   -0.5560 hc        1 HSF      0.060700
     25 H31         1.6710    0.9300    1.9450 hc        1 HSF      0.043700
     26 H32         1.6480   -0.8760    1.9680 hc        1 HSF      0.043700
     27 H41         3.9320   -0.9170    0.9040 hc        1 HSF      0.043700
     28 H42         3.9540    0.8880    0.8820 hc        1 HSF      0.043700
     29 H51         3.6890   -0.8840    3.4100 hc        1 HSF      0.040700
     30 H52         3.7080    0.9210    3.3890 hc        1 HSF      0.040700
     31 H61         5.9730   -0.9190    2.3470 hc        1 HSF      0.040700
     32 H62         5.9910    0.8860    2.3270 hc        1 HSF      0.040700
     33 H71         5.7310   -0.8910    4.8530 hc        1 HSF      0.039700
     34 H72         5.7450    0.9150    4.8350 hc        1 HSF      0.039700
     35 H81         8.0280    0.8870    3.7730 hc        1 HSF      0.039700
     36 H82         8.0140   -0.9180    3.7890 hc        1 HSF      0.039700
     37 H91         7.7720   -0.8950    6.2950 hc        1 HSF      0.039700
     38 H92         7.7830    0.9100    6.2810 hc        1 HSF      0.039700
     39 H101       10.0660    0.8880    5.2180 hc        1 HSF      0.039700
     40 H102       10.0560   -0.9170    5.2320 hc        1 HSF      0.039700
     41 H111        9.8130   -0.8980    7.7380 hc        1 HSF      0.039700
     42 H112        9.8200    0.9070    7.7260 hc        1 HSF      0.039700
     43 H121       12.0970   -0.9140    6.6750 hc        1 HSF      0.039700
     44 H122       12.1040    0.8910    6.6630 hc        1 HSF      0.039700
     45 H131       11.8550   -0.8980    9.1810 hc        1 HSF      0.039700
     46 H132       11.8590    0.9070    9.1710 hc        1 HSF      0.039700
     47 H141       14.1420    0.8960    8.1080 hc        1 HSF      0.039700
     48 H142       14.1390   -0.9090    8.1180 hc        1 HSF      0.039700
     49 H151       13.8940   -0.8950   10.6230 hc        1 HSF      0.038700
     50 H152       13.8970    0.9100   10.6140 hc        1 HSF      0.038700
     51 H161       16.1950    0.9040    9.5860 hc        1 HSF      0.032700
     52 H162       16.1930   -0.9060    9.5950 hc        1 HSF      0.032700
     53 H163       16.1570    0.0070   11.1600 hc        1 HSF      0.032700
@<TRIPOS>BOND
     1    1    2 1   
     2    1   17 1   
     3    1   21 1   
     4    1   22 1   
     5    2    3 1   
     6    2   23 1   
     7    2   24 1   
     8    3    4 1   
     9    3   25 1   
    10    3   26 1   
    11    4    5 1   
    12    4   27 1   
    13    4   28 1   
    14    5    6 1   
    15    5   29 1   
    16    5   30 1   
    17    6    7 1   
    18    6   31 1   
    19    6   32 1   
    20    7    8 1   
    21    7   33 1   
    22    7   34 1   
    23    8    9 1   
    24    8   35 1   
    25    8   36 1   
    26    9   10 1   
    27    9   37 1   
    28    9   38 1   
    29   10   11 1   
    30   10   39 1   
    31   10   40 1   
    32   11   12 1   
    33   11   41 1   
    34   11   42 1   
    35   12   13 1   
    36   12   43 1   
    37   12   44 1   
    38   13   14 1   
    39   13   45 1   
    40   13   46 1   
    41   14   15 1   
    42   14   47 1   
    43   14   48 1   
    44   15   16 1   
    45   15   49 1   
    46   15   50 1   
    47   16   51 1   
    48   16   52 1   
    49   16   53 1   
    50   17   18 2   
    51   17   19 2   
    52   17   20 1   
@<TRIPOS>SUBSTRUCTURE
     1 HSF         1 TEMP              0 ****  ****    0 ROOT
