@<TRIPOS>MOLECULE
HSI
   52    53     1     0     0
SMALL
bcc


@<TRIPOS>ATOM
      1 C60         0.0220   -0.1900   -0.3820 c3        1 HSI     -0.090100
      2 C56         1.5250   -0.1900   -0.2700 c3        1 HSI     -0.080400
      3 C52         1.9770   -0.0750    1.1700 c3        1 HSI     -0.079400
      4 C48         3.4870   -0.0750    1.2770 c3        1 HSI     -0.076400
      5 C44         3.9370    0.0400    2.7180 c3        1 HSI     -0.081400
      6 C40         5.4480    0.0430    2.8200 c3        1 HSI     -0.070400
      7 C9          5.9190    0.1660    4.2610 c3        1 HSI     -0.144700
      8 C5          7.4040    0.5080    4.3140 c3        1 HSI     -0.196400
      9 C3          7.6220    2.0180    4.5290 c         1 HSI      0.909600
     10 O1          8.4080    2.6210    3.7510 o         1 HSI     -0.841300
     11 O4          7.0130    2.5730    5.4940 o         1 HSI     -0.841300
     12 C11         5.6570   -1.0990    5.0430 c         1 HSI      0.584700
     13 O12         5.5880   -2.2170    4.5110 o         1 HSI     -0.573100
     14 C13         5.4720   -0.9650    6.5130 ca        1 HSI     -0.156600
     15 C14         5.8500    0.1920    7.2050 ca        1 HSI     -0.094500
     16 C16         5.6530    0.2740    8.5840 ca        1 HSI     -0.125500
     17 C18         5.0740   -0.7930    9.2870 ca        1 HSI      0.005000
     18 C25         4.8720   -0.7060   10.6760 cg        1 HSI     -0.042000
     19 C26         4.7000   -0.6300   11.8620 ch        1 HSI     -0.164000
     20 C27         4.5020   -0.5350   13.2480 ca        1 HSI      0.056000
     21 C28         4.8720    0.6310   13.9410 ca        1 HSI     -0.108000
     22 C30         4.6750    0.7270   15.3150 ca        1 HSI     -0.128000
     23 C32         4.1060   -0.3450   16.0090 ca        1 HSI      0.012400
     24 CL1         3.8650   -0.2300   17.6910 cl        1 HSI     -0.110400
     25 C33         3.7330   -1.5120   15.3350 ca        1 HSI     -0.128000
     26 C35         3.9310   -1.6050   13.9600 ca        1 HSI     -0.108000
     27 C19         4.6980   -1.9550    8.5900 ca        1 HSI     -0.125500
     28 C21         4.9000   -2.0350    7.2180 ca        1 HSI     -0.094500
     29 H601       -0.4150   -1.0480    0.1830 hc        1 HSI      0.027367
     30 H602       -0.4030    0.7550    0.0350 hc        1 HSI      0.027367
     31 H603       -0.2900   -0.2750   -1.4510 hc        1 HSI      0.027367
     32 H561        1.9470    0.6640   -0.8630 hc        1 HSI      0.036700
     33 H562        1.9350   -1.1350   -0.7150 hc        1 HSI      0.036700
     34 H521        1.5580   -0.9290    1.7650 hc        1 HSI      0.037700
     35 H522        1.5690    0.8700    1.6170 hc        1 HSI      0.037700
     36 H481        3.8950   -1.0200    0.8310 hc        1 HSI      0.038200
     37 H482        3.9070    0.7790    0.6840 hc        1 HSI      0.038200
     38 H441        3.5270   -0.8190    3.3110 hc        1 HSI      0.038700
     39 H442        3.5270    0.9840    3.1650 hc        1 HSI      0.038700
     40 H401        5.8570   -0.9010    2.3730 hc        1 HSI      0.054200
     41 H402        5.8640    0.9080    2.2390 hc        1 HSI      0.054200
     42 H9          5.3490    1.0090    4.7530 hc        1 HSI      0.096700
     43 H51         7.9120    0.1870    3.3720 hc        1 HSI      0.036700
     44 H52         7.8950   -0.0240    5.1690 hc        1 HSI      0.036700
     45 H14         6.3130    1.0550    6.6660 ha        1 HSI      0.190000
     46 H16         5.9550    1.1870    9.1180 ha        1 HSI      0.135000
     47 H28         5.3190    1.4720   13.3890 ha        1 HSI      0.147000
     48 H30         4.9670    1.6430   15.8500 ha        1 HSI      0.143500
     49 H33         3.2860   -2.3530   15.8840 ha        1 HSI      0.143500
     50 H35         3.6390   -2.5210   13.4250 ha        1 HSI      0.147000
     51 H19         4.2470   -2.7970    9.1330 ha        1 HSI      0.135000
     52 H21         4.6170   -2.9460    6.6660 ha        1 HSI      0.190000
@<TRIPOS>BOND
     1    1    2 1   
     2    1   29 1   
     3    1   30 1   
     4    1   31 1   
     5    2    3 1   
     6    2   32 1   
     7    2   33 1   
     8    3    4 1   
     9    3   34 1   
    10    3   35 1   
    11    4    5 1   
    12    4   36 1   
    13    4   37 1   
    14    5    6 1   
    15    5   38 1   
    16    5   39 1   
    17    6    7 1   
    18    6   40 1   
    19    6   41 1   
    20    7    8 1   
    21    7   12 1   
    22    7   42 1   
    23    8    9 1   
    24    8   43 1   
    25    8   44 1   
    26    9   10 1   
    27    9   11 1   
    28   12   13 2   
    29   12   14 1   
    30   14   15 ar  
    31   14   28 ar  
    32   15   16 ar  
    33   15   45 1   
    34   16   17 ar  
    35   16   46 1   
    36   17   18 1   
    37   17   27 ar  
    38   18   19 3   
    39   19   20 1   
    40   20   21 ar  
    41   20   26 ar  
    42   21   22 ar  
    43   21   47 1   
    44   22   23 ar  
    45   22   48 1   
    46   23   24 1   
    47   23   25 ar  
    48   25   26 ar  
    49   25   49 1   
    50   26   50 1   
    51   27   28 ar  
    52   27   51 1   
    53   28   52 1   
@<TRIPOS>SUBSTRUCTURE
     1 HSI         1 TEMP              0 ****  ****    0 ROOT
