@<TRIPOS>MOLECULE
molecule
   52    53     1     0     0
SMALL
bcc


@<TRIPOS>ATOM
      1 C60          0.0000     0.0000     0.0000 c3         1 HSI      -0.078100
      2 C56          1.5300     0.0000     0.0000 c3         1 HSI      -0.067400
      3 C52          2.0400     0.0000     1.4430 c3         1 HSI      -0.143400
      4 C48          3.5700    -0.0010     1.4430 c3         1 HSI      -0.116400
      5 C44          4.0790     0.0000     2.8860 c3         1 HSI      -0.071400
      6 C40          5.6090    -0.0010     2.8860 c3         1 HSI      -0.016400
      7 C9           6.1190     0.1260     4.3220 c3         1 HSI      -0.093700
      8 C5           7.6430     0.2620     4.3140 c3         1 HSI      -0.235400
      9 C3           8.0270     1.5770     3.6860 c          1 HSI       0.880600
     10 O1           9.3170     1.9470     3.6400 o          1 HSI      -0.851300
     11 O4           7.1740     2.2980     3.2260 o          1 HSI      -0.851300
     12 C11          5.7280    -1.1010     5.1040 c          1 HSI       0.575700
     13 O12          5.6170    -2.1690     4.5410 o          1 HSI      -0.545100
     14 C13          5.4830    -1.0040     6.5490 ca         1 HSI      -0.134600
     15 C14          5.6060     0.2300     7.2000 ca         1 HSI      -0.075000
     16 C16          5.3780     0.3200     8.5420 ca         1 HSI      -0.132500
     17 C18          5.0200    -0.8230     9.2700 ca         1 HSI      -0.018000
     18 C25          4.7820    -0.7270    10.6780 cg         1 HSI      -0.075000
     19 C26          4.5680    -0.6400    11.8290 ch         1 HSI      -0.193000
     20 C27          4.3560    -0.6920    13.3010 ca         1 HSI       0.044000
     21 C28          3.8400     0.5740    13.6270 ca         1 HSI      -0.069500
     22 C30          3.5620     0.6340    15.2520 ca         1 HSI      -0.128500
     23 C32          3.9090    -0.5550    15.8220 ca         1 HSI       0.060400
     24 Cl1          3.8540    -0.6460    17.7560 cl         1 HSI      -0.245400
     25 C33          4.3930    -1.6360    15.2670 ca         1 HSI      -0.128500
     26 C35          4.3110    -2.0190    13.7770 ca         1 HSI      -0.069500
     27 C19          4.8960    -2.0560     8.6200 ca         1 HSI      -0.132500
     28 C21          5.1190    -2.1460     7.2760 ca         1 HSI      -0.075000
     29 H601        -0.3580    -0.9830     0.2800 hc         1 HSI       0.018367
     30 H602        -0.5980     0.6280     0.6500 hc         1 HSI       0.018367
     31 H603        -0.5150     0.0290    -0.9530 hc         1 HSI       0.018367
     32 H561         1.7440     0.9880    -0.3890 hc         1 HSI       0.061700
     33 H562         2.2240    -0.7850    -0.2760 hc         1 HSI       0.061700
     34 H521         1.6170    -0.8020     2.0360 hc         1 HSI       0.030700
     35 H522         1.8850     0.8190     2.1350 hc         1 HSI       0.030700
     36 H481         3.6800    -0.6160     0.5580 hc         1 HSI       0.029700
     37 H482         3.7300     0.9430     0.9370 hc         1 HSI       0.029700
     38 H441         3.4490    -0.8190     3.2110 hc         1 HSI       0.023700
     39 H442         3.3370     0.7140     3.2230 hc         1 HSI       0.023700
     40 H401         5.8150    -0.8250     2.2130 hc         1 HSI       0.073700
     41 H402         5.6820     0.9070     2.2990 hc         1 HSI       0.073700
     42 H9           5.6820     1.0030     4.7840 hc         1 HSI       0.078700
     43 H51          8.2730    -0.2070     3.5670 hc         1 HSI       0.067200
     44 H52          7.9770     0.2200     5.3430 hc         1 HSI       0.067200
     45 H14          6.1240     1.0990     6.8110 ha         1 HSI       0.160000
     46 H16          5.6360     1.2060     9.1090 ha         1 HSI       0.139500
     47 H28          3.6210     1.4750    13.0670 ha         1 HSI       0.184500
     48 H30          3.1060     1.2320    16.0320 ha         1 HSI       0.155000
     49 H33          4.6950    -2.5520    15.7600 ha         1 HSI       0.155000
     50 H35          4.9070    -2.8380    13.3930 ha         1 HSI       0.184500
     51 H19          4.6950    -2.6260     9.5190 ha         1 HSI       0.139500
     52 H21          5.3940    -3.1070     6.8580 ha         1 HSI       0.160000
@<TRIPOS>BOND
     1     1     2 1
     2     1    29 1
     3     1    30 1
     4     1    31 1
     5     2     3 1
     6     2    32 1
     7     2    33 1
     8     3     4 1
     9     3    34 1
    10     3    35 1
    11     4     5 1
    12     4    36 1
    13     4    37 1
    14     5     6 1
    15     5    38 1
    16     5    39 1
    17     6     7 1
    18     6    40 1
    19     6    41 1
    20     7    12 1
    21     7     8 1
    22     7    42 1
    23     8     9 1
    24     8    43 1
    25     8    44 1
    26     9    10 1
    27     9    11 1
    28    12    13 2
    29    12    14 1
    30    14    28 ar
    31    14    15 ar
    32    15    16 ar
    33    15    45 1
    34    16    17 ar
    35    16    46 1
    36    17    27 ar
    37    17    18 1
    38    18    19 3
    39    19    20 1
    40    20    26 ar
    41    20    21 ar
    42    21    22 ar
    43    21    47 1
    44    22    23 ar
    45    22    48 1
    46    23    25 ar
    47    23    24 1
    48    25    26 ar
    49    25    49 1
    50    26    50 1
    51    27    28 ar
    52    27    51 1
    53    28    52 1
@<TRIPOS>SUBSTRUCTURE
     1 HSI         1 TEMP              0 ****  ****    0 ROOT
