@<TRIPOS>MOLECULE
molecule
   18    18     1     0     0
SMALL
bcc


@<TRIPOS>ATOM
      1 N            0.0000     0.0000     0.0000 nz         1 HSM      -0.812600
      2 CA           1.4690     0.0000     0.0000 c3         1 HSM       0.092800
      3 CB           1.9800     0.0000     1.4410 c3         1 HSM      -0.099700
      4 CG           3.4860    -0.0010     1.4400 cc         1 HSM       0.266600
      5 ND1          4.2730    -0.9430     0.9040 nc         1 HSM      -0.707000
      6 CD2          4.2780     0.9430     1.9860 cd         1 HSM      -0.229600
      7 CE1          5.5230    -0.6170     1.0880 cd         1 HSM       0.432400
      8 NE2          5.5700     0.5520     1.7620 na         1 HSM      -0.279900
      9 H1          -0.3340    -0.7760     0.5360 hn         1 HSM       0.454800
     10 H2          -0.3340    -0.0760    -0.9400 hn         1 HSM       0.454800
     11 HA1          1.8300    -0.8840    -0.5110 hx         1 HSM       0.121200
     12 HA2          1.8300     0.8840    -0.5110 hx         1 HSM       0.121200
     13 HB1          1.6200     0.8850     1.9520 hc         1 HSM       0.067700
     14 HB2          1.6190    -0.8840     1.9530 hc         1 HSM       0.067700
     15 HD2          3.9540     1.8390     2.5020 h4         1 HSM       0.184000
     16 HE1          6.3810    -1.1920     0.7600 h5         1 HSM       0.087100
     17 HE2          6.3960     1.0420     2.0440 hn         1 HSM       0.321700
     18 HN3         -0.3340     0.8600     0.3880 hn         1 HSM       0.454800
@<TRIPOS>BOND
     1     1     2 1
     2     1     9 1
     3     1    10 1
     4     2     3 1
     5     2    11 1
     6     2    12 1
     7     3     4 1
     8     3    13 1
     9     3    14 1
    10     4     5 1
    11     4     6 2
    12     5     7 2
    13     6     8 1
    14     6    15 1
    15     7     8 1
    16     7    16 1
    17     8    17 1
    18    18     1 1
@<TRIPOS>SUBSTRUCTURE
     1 HSM         1 TEMP              0 ****  ****    0 ROOT
