@<TRIPOS>MOLECULE
HSP
   30    30     1     0     0
SMALL
bcc


@<TRIPOS>ATOM
      1 O1          1.1260    0.3020    0.0750 o         1 HSP     -0.881000
      2 O2          3.4890   -0.6110   -0.4900 o         1 HSP     -0.881000
      3 O3          1.4450    7.0190   -2.2680 o         1 HSP     -0.896000
      4 C1          2.1680    8.4680    1.1410 c1        1 HSP     -0.317000
      5 C2          1.3730    8.1690    0.0290 c2        1 HSP     -0.683000
      6 C3          0.1610    8.8600   -0.1760 c2        1 HSP      0.163000
      7 C4         -0.2610    9.8440    0.7280 c2        1 HSP     -0.287000
      8 C5          0.5420   10.1300    1.8410 c2        1 HSP     -0.099000
      9 C6          1.7370    9.4560    2.0370 c2        1 HSP     -0.211000
     10 O4         -0.6810    8.6430   -1.2460 oh        1 HSP     -0.316000
     11 S1          2.1560    7.0260   -0.9130 s4        1 HSP      1.457000
     12 C7          1.6660    5.4930   -0.1760 c3        1 HSP     -0.575000
     13 C8          2.5100    4.3820   -0.7480 c3        1 HSP     -0.125000
     14 C9          2.1940    3.0310   -0.1420 c3        1 HSP     -0.138000
     15 C10         3.0610    1.9340   -0.6870 c3        1 HSP     -0.826000
     16 P1          2.6020    0.4660    0.0140 p5        1 HSP      1.990000
     17 O5          2.9530    0.7040    1.6110 oh        1 HSP     -0.832000
     18 H4         -1.2050   10.3730    0.5580 ha        1 HSP      0.097000
     19 H5          0.1990   10.9010    2.5490 ha        1 HSP      0.066000
     20 H6          2.3590    9.6920    2.9110 ha        1 HSP      0.081000
     21 HO4        -0.2560    8.0070   -1.8460 ho        1 HSP      0.250000
     22 H71         0.5870    5.2680   -0.3440 h1        1 HSP      0.117000
     23 H72         1.8230    5.5720    0.9280 h1        1 HSP      0.117000
     24 H81         2.3500    4.3320   -1.8590 hc        1 HSP      0.067500
     25 H82         3.5960    4.6110   -0.5770 hc        1 HSP      0.067500
     26 H91         1.1200    2.7580   -0.3290 hc        1 HSP      0.089500
     27 H92         2.3320    3.0670    0.9720 hc        1 HSP      0.089500
     28 H101        4.1350    2.1490   -0.4750 hc        1 HSP      0.098000
     29 H102        2.9630    1.8810   -1.7980 hc        1 HSP      0.098000
     30 H1          2.1590    0.7270    2.1330 ho        1 HSP      0.215000
@<TRIPOS>BOND
     1    1   16 1   
     2    2   16 1   
     3    3   11 1   
     4    4    5 1   
     5    4    9 1   
     6    5    6 1   
     7    5   11 1   
     8    6    7 1   
     9    6   10 1   
    10    7    8 1   
    11    7   18 1   
    12    8    9 1   
    13    8   19 1   
    14    9   20 1   
    15   10   21 1   
    16   11   12 1   
    17   12   13 1   
    18   12   22 1   
    19   12   23 1   
    20   13   14 1   
    21   13   24 1   
    22   13   25 1   
    23   14   15 1   
    24   14   26 1   
    25   14   27 1   
    26   15   16 1   
    27   15   28 1   
    28   15   29 1   
    29   16   17 1   
    30   17   30 1   
@<TRIPOS>SUBSTRUCTURE
     1 HSP         1 TEMP              0 ****  ****    0 ROOT
