@<TRIPOS>MOLECULE
molecule
   30    30     1     0     0
SMALL
bcc


@<TRIPOS>ATOM
      1 O1           0.0000     0.0000     0.0000 o          1 HSP      -0.918833
      2 O2           2.1460    -1.3150    -0.7590 o          1 HSP      -0.918833
      3 O3           1.7720     6.9100    -2.0460 o          1 HSP      -0.518200
      4 C1           2.8160     8.5460     1.1440 ca         1 HSP      -0.039000
      5 C2           1.9710     8.0220     0.1850 ca         1 HSP      -0.117500
      6 C3           0.6870     8.5300     0.0400 ca         1 HSP       0.194100
      7 C4           0.2560     9.5620     0.8600 ca         1 HSP      -0.223000
      8 C5           1.1050    10.0820     1.8180 ca         1 HSP      -0.087000
      9 C6           2.3830     9.5760     1.9600 ca         1 HSP      -0.182000
     10 O4          -0.1460     8.0160    -0.9030 oh         1 HSP      -0.467100
     11 S1           2.5220     6.7110    -0.8560 sx         1 HSP       0.293400
     12 C7           1.9180     5.2300     0.0000 c3         1 HSP      -0.051100
     13 C8           2.3230     3.9840    -0.7900 c3         1 HSP      -0.065400
     14 C9           1.8130     2.7340    -0.0690 c3         1 HSP      -0.034400
     15 C10          2.2180     1.4880    -0.8600 c3         1 HSP      -0.243600
     16 P1           1.6100     0.0000     0.0000 p5         1 HSP       1.052700
     17 O5           2.1040     0.0000     1.3950 o          1 HSP      -0.918833
     18 H4          -0.7460     9.9600     0.7500 ha         1 HSP       0.123000
     19 H5           0.7680    10.8890     2.4580 ha         1 HSP       0.114000
     20 H6           3.0470     9.9850     2.7110 ha         1 HSP       0.118000
     21 HO4         -0.5960     8.7190    -1.3410 ho         1 HSP       0.415000
     22 H71          2.3500     5.1850     0.9920 h1         1 HSP       0.078700
     23 H72          0.8380     5.2740     0.0780 h1         1 HSP       0.078700
     24 H81          3.4020     3.9410    -0.8680 hc         1 HSP       0.027700
     25 H82          1.8910     4.0300    -1.7830 hc         1 HSP       0.027700
     26 H91          2.2450     2.6890     0.9230 hc         1 HSP       0.049200
     27 H92          0.7330     2.7780     0.0080 hc         1 HSP       0.049200
     28 H101         1.7860     1.5340    -1.8520 hc         1 HSP       0.016700
     29 H102         3.2970     1.4450    -0.9370 hc         1 HSP       0.016700
     30 H1           3.8180     8.1500     1.2570 ha         1 HSP       0.130000
@<TRIPOS>BOND
     1     1    16 1
     2     2    16 1
     3     3    11 2
     4     4     5 ar
     5     4     9 ar
     6     4    30 1
     7     5     6 ar
     8     5    11 1
     9     6     7 ar
    10     6    10 1
    11     7     8 ar
    12     7    18 1
    13     8     9 ar
    14     8    19 1
    15     9    20 1
    16    10    21 1
    17    11    12 1
    18    12    13 1
    19    12    22 1
    20    12    23 1
    21    13    14 1
    22    13    24 1
    23    13    25 1
    24    14    15 1
    25    14    26 1
    26    14    27 1
    27    15    16 1
    28    15    28 1
    29    15    29 1
    30    16    17 1
@<TRIPOS>SUBSTRUCTURE
     1 HSP         1 TEMP              0 ****  ****    0 ROOT
