@<TRIPOS>MOLECULE
HSS
   54    54     1     0     0
SMALL
bcc


@<TRIPOS>ATOM
      1 C4          0.6500   -0.4210   -0.7190 cc        1 HSS      0.265100
      2 C5          1.9750   -0.6900   -1.2490 cc        1 HSS     -0.212000
      3 C6          3.1140   -0.2240   -0.4850 cf        1 HSS      0.479600
      4 C8          0.5560   -1.5830   -2.6500 cd        1 HSS      0.429700
      5 N1          2.8900    0.4650    0.6760 nf        1 HSS     -0.656000
      6 N3          0.5020    0.2770    0.4560 nh        1 HSS     -0.286500
      7 N11         4.2170   -0.8720   -6.9310 nh        1 HSS     -0.538600
      8 CE1         5.5260   -0.4610   -6.9840 c1        1 HSS      0.290600
      9 N12         6.6340   -0.0950   -6.9310 n1        1 HSS     -0.344800
     10 CD2         3.6310    0.7150   -8.7180 c2        1 HSS     -0.200000
     11 CG          3.2900   -0.1860   -7.7810 c2        1 HSS     -0.012200
     12 CB          1.8470   -0.5240   -7.5190 c3        1 HSS     -0.046200
     13 CA          1.2730    0.2780   -6.3560 c3        1 HSS      0.021500
     14 N           2.0910    0.1370   -5.1080 n4        1 HSS     -0.821600
     15 C          -0.2240   -0.1340   -6.0510 c2        1 HSS      0.778300
     16 O          -0.4970   -0.2760   -4.8240 o         1 HSS     -0.783300
     17 N1S        -1.0100   -0.2550   -7.0730 ne        1 HSS     -0.901600
     18 S          -2.2710   -0.5200   -7.8230 sy        1 HSS      1.873900
     19 O2S        -2.5840    0.4540   -8.7760 o         1 HSS     -0.690800
     20 O3S        -2.4360   -1.8520   -8.2070 o         1 HSS     -0.690800
     21 O5'        -3.5230   -0.3440   -6.6660 os        1 HSS     -0.621500
     22 C4'        -2.8060   -0.3620   -3.5490 c2        1 HSS      0.219000
     23 O4'        -2.1810   -1.4180   -2.9230 os        1 HSS     -0.320900
     24 C3'        -2.9460    0.7740   -2.7320 c1        1 HSS     -0.375800
     25 O3'        -4.1860    2.9810   -4.0170 oh        1 HSS     -0.820000
     26 C2'        -2.2980    0.4830   -1.5600 c2        1 HSS      0.055800
     27 O2'        -2.1520    1.1760   -0.4200 oh        1 HSS     -0.478100
     28 C1'        -1.6770   -0.9440   -1.6230 c3        1 HSS      0.211000
     29 N9         -0.2440   -1.0190   -1.6200 na        1 HSS     -0.269200
     30 N7          1.8680   -1.4040   -2.4530 nc        1 HSS     -0.616300
     31 C2          1.6470    0.7070    1.1170 c1        1 HSS      0.230400
     32 N6          4.3810   -0.4370   -0.9700 nh        1 HSS     -0.832600
     33 H8          0.0730   -2.0820   -3.5060 h5        1 HSS      0.108800
     34 HE1         2.9240    0.7220   -5.1510 hn        1 HSS      0.461467
     35 HD2         4.6710    0.9770   -8.9590 ha        1 HSS      0.146000
     36 HB2         2.8650    1.2500   -9.2980 ha        1 HSS      0.146000
     37 HA          1.7080   -1.6240   -7.3390 hc        1 HSS      0.102200
     38 HN1         1.4960    0.4050   -4.3050 hn        1 HSS      0.461467
     39 HN2         2.3700   -0.8400   -4.9800 hn        1 HSS      0.461467
     40 HN1S        1.2600    1.3770   -6.6180 hx        1 HSS      0.110700
     41 H4'        -4.3650    1.3050   -7.6350 h1        1 HSS      0.039367
     42 H3'        -3.1520   -0.5820   -4.5760 h4        1 HSS      0.251000
     43 HO3'       -4.5960    2.2880   -3.4870 ho        1 HSS      0.406500
     44 H2'        -3.2530    2.7460   -3.9700 ho        1 HSS      0.406500
     45 HO2'       -2.6460    2.0130   -0.5170 ho        1 HSS      0.475000
     46 H1'        -2.1200   -1.6320   -0.8480 h2        1 HSS      0.125700
     47 H2         -0.3990    0.5110    0.8120 hn        1 HSS      0.319700
     48 HN61        5.1580   -0.2160   -0.3900 hn        1 HSS      0.439300
     49 HN62        4.5050   -1.1430   -1.6540 hn        1 HSS      0.439300
     50 C5'        -4.4260    0.7270   -6.6780 c3        1 HSS      0.159700
     51 HB1         1.2450   -0.2660   -8.4350 hc        1 HSS      0.102200
     52 HN11        4.1470   -1.8740   -7.0310 hn        1 HSS      0.426800
     53 H5'1       -4.1980    1.3960   -5.8060 h1        1 HSS      0.039367
     54 H5'2       -5.4520    0.2920   -6.5650 h1        1 HSS      0.039367
@<TRIPOS>BOND
     1    1    2 1
     2    1    6 1
     3    1   29 2
     4    2    3 2
     5    2   30 1
     6    3    5 1
     7    3   32 1
     8    4   29 1
     9    4   30 2
    10    4   33 1
    11    5   31 2
    12    6   31 2
    13    6   47 1
    14    7    8 1
    15    7   11 1
    16    7   52 1
    17    8    9 3
    18   10   11 2
    19   10   35 1
    20   10   36 1
    21   11   12 1
    22   12   13 1
    23   12   37 1
    24   12   51 1
    25   13   14 1
    26   13   15 1
    27   13   40 1
    28   14   34 1
    29   14   38 1
    30   14   39 1
    31   15   16 1
    32   15   17 2
    33   17   18 1
    34   18   19 2
    35   18   20 2
    36   18   21 1
    37   21   50 1
    38   22   23 1
    39   22   24 2
    40   22   42 1
    41   23   28 1
    42   24   26 2
    43   25   43 1
    44   25   44 1
    45   26   27 1
    46   26   28 1
    47   27   45 1
    48   28   29 1
    49   28   46 1
    50   32   48 1
    51   32   49 1
    52   41   50 1
    53   50   53 1
    54   50   54 1
@<TRIPOS>SUBSTRUCTURE
     1 HSS         1 TEMP              0 ****  ****    0 ROOT
