@<TRIPOS>MOLECULE
molecule
   44    44     1     0     0
SMALL
bcc


@<TRIPOS>ATOM
      1 N1           0.0000     0.0000     0.0000 na         1 HST      -0.084600
      2 N2           1.4010     0.0000     0.0000 nc         1 HST      -0.251800
      3 N3           1.8190     0.0000     1.2170 nd         1 HST      -0.298000
      4 CB1         -0.3940     0.0010     1.2960 cc         1 HST      -0.098700
      5 CB2          0.7680     0.0060     2.0590 cd         1 HST       0.283800
      6 CB3          0.8390     0.0090     3.5220 c          1 HST       0.801100
      7 O1          -0.1840     0.0150     4.1800 o          1 HST      -0.818800
      8 O2           2.0380     0.0040     4.1410 o          1 HST      -0.818800
      9 S           -2.0510     0.0030     1.8950 ss         1 HST      -0.082000
     10 C1          -0.3730    -5.6570    -1.4550 c3         1 HST      -0.092100
     11 C2          -0.2930    -4.1840    -1.0490 c3         1 HST      -0.084400
     12 C3          -1.6990    -3.6630    -0.7440 c3         1 HST      -0.077900
     13 C4          -1.6200    -2.1910    -0.3360 c3         1 HST      -0.095400
     14 C5          -3.0250    -1.6680    -0.0330 c3         1 HST      -0.065400
     15 C6          -2.9500    -0.1870     0.3370 c3         1 HST      -0.059600
     16 C7          -4.3650     0.3730     0.4930 c3         1 HST      -0.065400
     17 C8          -4.2900     1.8560     0.8620 c3         1 HST      -0.095400
     18 C9          -5.7050     2.4160     1.0180 c3         1 HST      -0.077900
     19 C10         -5.6310     3.8970     1.3870 c3         1 HST      -0.084400
     20 C11         -7.0450     4.4570     1.5430 c3         1 HST      -0.092100
     21 HN1         -0.5960    -0.0020    -0.8040 hn         1 HST       0.311700
     22 H11         -0.9770    -5.7530    -2.3490 hc         1 HST       0.027700
     23 H12          0.6240    -6.0320    -1.6510 hc         1 HST       0.027700
     24 H13         -0.8230    -6.2290    -0.6530 hc         1 HST       0.027700
     25 H21          0.1370    -3.6090    -1.8600 hc         1 HST       0.047200
     26 H22          0.3280    -4.0860    -0.1670 hc         1 HST       0.047200
     27 H31         -2.1300    -4.2390     0.0660 hc         1 HST       0.034700
     28 H32         -2.3190    -3.7600    -1.6270 hc         1 HST       0.034700
     29 H41         -1.1880    -1.6150    -1.1460 hc         1 HST       0.057700
     30 H42         -1.0000    -2.0940     0.5470 hc         1 HST       0.057700
     31 H51         -3.4460    -2.2260     0.7950 hc         1 HST       0.042950
     32 H52         -3.6520    -1.7910    -0.9070 hc         1 HST       0.042950
     33 H6          -2.4320     0.3550    -0.4460 h1         1 HST       0.050700
     34 H71         -4.8830    -0.1680     1.2760 hc         1 HST       0.042950
     35 H72         -4.9030     0.2600    -0.4400 hc         1 HST       0.042950
     36 H81         -3.7530     1.9690     1.7960 hc         1 HST       0.057700
     37 H82         -3.7720     2.3970     0.0800 hc         1 HST       0.057700
     38 H91         -6.2230     1.8750     1.8010 hc         1 HST       0.034700
     39 H92         -6.2430     2.3020     0.0850 hc         1 HST       0.034700
     40 H101        -5.0920     4.0100     2.3200 hc         1 HST       0.047200
     41 H102        -5.1130     4.4380     0.6040 hc         1 HST       0.047200
     42 H111        -7.5630     3.9170     2.3270 hc         1 HST       0.027700
     43 H112        -6.9910     5.5070     1.8040 hc         1 HST       0.027700
     44 H113        -7.5840     4.3450     0.6100 hc         1 HST       0.027700
@<TRIPOS>BOND
     1     1     2 1
     2     1     4 1
     3     1    21 1
     4     2     3 2
     5     3     5 1
     6     4     5 2
     7     4     9 1
     8     5     6 1
     9     6     7 1
    10     6     8 1
    11     9    15 1
    12    10    11 1
    13    10    22 1
    14    10    23 1
    15    10    24 1
    16    11    12 1
    17    11    25 1
    18    11    26 1
    19    12    13 1
    20    12    27 1
    21    12    28 1
    22    13    14 1
    23    13    29 1
    24    13    30 1
    25    14    15 1
    26    14    31 1
    27    14    32 1
    28    15    16 1
    29    15    33 1
    30    16    17 1
    31    16    34 1
    32    16    35 1
    33    17    18 1
    34    17    36 1
    35    17    37 1
    36    18    19 1
    37    18    38 1
    38    18    39 1
    39    19    20 1
    40    19    40 1
    41    19    41 1
    42    20    42 1
    43    20    43 1
    44    20    44 1
@<TRIPOS>SUBSTRUCTURE
     1 HST         1 TEMP              0 ****  ****    0 ROOT
