@<TRIPOS>MOLECULE
HST
   44    44     1     0     0
SMALL
bcc


@<TRIPOS>ATOM
      1 N1          0.5180    1.9880    2.0770 na        1 HST     -0.067600
      2 N2          1.8410    1.8510    2.0330 nc        1 HST     -0.200800
      3 N3          2.1610    0.6410    2.2880 nd        1 HST     -0.383000
      4 CB1        -0.1010    0.7560    2.4300 cc        1 HST     -0.196700
      5 CB2         1.0030   -0.1240    2.5550 cd        1 HST      0.358800
      6 CB3         1.0370   -1.6110    2.8950 c         1 HST      0.845100
      7 O1          1.2560   -1.9220    4.0900 o         1 HST     -0.803300
      8 O2          0.8340   -2.4140    1.9440 o         1 HST     -0.803300
      9 S          -1.7530    0.6360    2.6540 ss        1 HST     -0.191000
     10 C1         -1.1000   -5.4520   -1.8350 c3        1 HST     -0.090600
     11 C2         -1.6050   -4.0330   -1.8090 c3        1 HST     -0.077400
     12 C3         -1.6650   -3.4930   -0.3970 c3        1 HST     -0.085400
     13 C4         -2.1840   -2.0700   -0.3690 c3        1 HST     -0.071900
     14 C5         -2.1400   -1.5280    1.0450 c3        1 HST     -0.086400
     15 C6         -2.3700   -0.0350    1.1040 c3        1 HST      0.005400
     16 C7         -3.8410    0.3190    1.0700 c3        1 HST     -0.086400
     17 C8         -4.0820    1.7430    0.6130 c3        1 HST     -0.071900
     18 C9         -5.5580    2.0790    0.6210 c3        1 HST     -0.085400
     19 C10        -5.8030    3.4990    0.1570 c3        1 HST     -0.077400
     20 C11        -7.2710    3.8390    0.1640 c3        1 HST     -0.090600
     21 HN1         0.0670    2.8660    1.9910 hn        1 HST      0.299700
     22 H11        -0.0810   -5.5120   -1.3790 hc        1 HST      0.027867
     23 H12        -1.7800   -6.1230   -1.2560 hc        1 HST      0.027867
     24 H13        -1.0420   -5.8290   -2.8850 hc        1 HST      0.027867
     25 H21        -2.6250   -3.9870   -2.2760 hc        1 HST      0.031700
     26 H22        -0.9300   -3.3830   -2.4270 hc        1 HST      0.031700
     27 H31        -0.6410   -3.5170    0.0720 hc        1 HST      0.050950
     28 H32        -2.3290   -4.1460    0.2280 hc        1 HST      0.050950
     29 H41        -3.2310   -2.0330   -0.7700 hc        1 HST      0.031950
     30 H42        -1.5490   -1.4330   -1.0390 hc        1 HST      0.031950
     31 H51        -1.1240   -1.7620    1.4870 hc        1 HST      0.066700
     32 H52        -2.9030   -2.0550    1.6750 hc        1 HST      0.066700
     33 H6         -1.8300    0.4580    0.2560 h1        1 HST      0.066700
     34 H71        -4.3700   -0.3880    0.3740 hc        1 HST      0.066700
     35 H72        -4.2870    0.1690    2.0910 hc        1 HST      0.066700
     36 H81        -3.5290    2.4490    1.2880 hc        1 HST      0.031950
     37 H82        -3.6710    1.8810   -0.4220 hc        1 HST      0.031950
     38 H91        -6.1100    1.3650   -0.0460 hc        1 HST      0.050950
     39 H92        -5.9680    1.9460    1.6570 hc        1 HST      0.050950
     40 H101       -5.3900    3.6300   -0.8780 hc        1 HST      0.031700
     41 H102       -5.2480    4.2100    0.8250 hc        1 HST      0.031700
     42 H111       -7.6940    3.7380    1.1930 hc        1 HST      0.027867
     43 H112       -7.8370    3.1560   -0.5150 hc        1 HST      0.027867
     44 H113       -7.4290    4.8900   -0.1810 hc        1 HST      0.027867
@<TRIPOS>BOND
     1    1    2 1   
     2    1    4 1   
     3    1   21 1   
     4    2    3 2   
     5    3    5 1   
     6    4    5 2   
     7    4    9 1   
     8    5    6 1   
     9    6    7 1   
    10    6    8 1   
    11    9   15 1   
    12   10   11 1   
    13   10   22 1   
    14   10   23 1   
    15   10   24 1   
    16   11   12 1   
    17   11   25 1   
    18   11   26 1   
    19   12   13 1   
    20   12   27 1   
    21   12   28 1   
    22   13   14 1   
    23   13   29 1   
    24   13   30 1   
    25   14   15 1   
    26   14   31 1   
    27   14   32 1   
    28   15   16 1   
    29   15   33 1   
    30   16   17 1   
    31   16   34 1   
    32   16   35 1   
    33   17   18 1   
    34   17   36 1   
    35   17   37 1   
    36   18   19 1   
    37   18   38 1   
    38   18   39 1   
    39   19   20 1   
    40   19   40 1   
    41   19   41 1   
    42   20   42 1   
    43   20   43 1   
    44   20   44 1   
@<TRIPOS>SUBSTRUCTURE
     1 HST         1 TEMP              0 ****  ****    0 ROOT
