@<TRIPOS>MOLECULE
molecule
   11    10     1     0     0
SMALL
bcc


@<TRIPOS>ATOM
      1 O3           0.0000     0.0000     0.0000 oh         1 HSW      -0.329300
      2 N2           1.4310     0.0000     0.0000 n7         1 HSW      -0.599600
      3 S1           1.8780     0.0000     1.6590 s6         1 HSW       1.233800
      4 O2           1.4840     1.2660     2.2470 o          1 HSW      -0.450800
      5 O1           1.4740    -1.2580     2.2570 o          1 HSW      -0.450800
      6 N1           3.5800    -0.0110     1.4920 nz         1 HSW      -0.793500
      7 HO3         -0.3140    -0.2880    -0.8410 ho         1 HSW       0.466000
      8 HN2          1.9310     0.5700    -0.6530 hn         1 HSW       0.447800
      9 HN11         4.0030    -0.1060     2.3940 hn         1 HSW       0.492133
     10 HN12         3.8530    -0.7810     0.9130 hn         1 HSW       0.492133
     11 H13          3.8800     0.8460     1.0710 hn         1 HSW       0.492133
@<TRIPOS>BOND
     1     1     2 1
     2     2     3 1
     3     3     4 2
     4     3     5 2
     5     3     6 1
     6     1     7 1
     7     2     8 1
     8     6     9 1
     9     6    10 1
    10    11     6 1
@<TRIPOS>SUBSTRUCTURE
     1 HSW         1 TEMP              0 ****  ****    0 ROOT
