@<TRIPOS>MOLECULE
HT
   56    61     1     0     0
SMALL
bcc


@<TRIPOS>ATOM
      1 O1           0.0000     0.0000     0.0000 oh         1 HT       -0.500100
      2 C1           1.3580     0.0000     0.0000 ca         1 HT        0.134100
      3 C4           4.1280    -0.0020     0.0000 ca         1 HT       -0.120900
      4 C2           2.0510     0.0000     1.2040 ca         1 HT       -0.138000
      5 C3           3.4280    -0.0000     1.2080 ca         1 HT       -0.061500
      6 C6           2.0500    -0.0070    -1.2040 ca         1 HT       -0.138000
      7 C5           3.4290    -0.0080    -1.2080 ca         1 HT       -0.061500
      8 C7           5.6060    -0.0030    -0.0000 cc         1 HT        0.273400
      9 N1           6.3940     0.0030     1.1200 na         1 HT        0.274700
     10 C8           7.7080    -0.0020     0.6910 ca         1 HT       -0.280200
     11 C9           7.6620    -0.0100    -0.7160 ca         1 HT        0.072400
     12 N2           6.3610    -0.0150    -1.0720 nd         1 HT       -0.514100
     13 C10          8.8560    -0.0160    -1.4500 ca         1 HT       -0.037000
     14 C11         10.0540    -0.0140    -0.8020 ca         1 HT       -0.123000
     15 C12         10.1070    -0.0060     0.5980 ca         1 HT       -0.096900
     16 C13          8.9290     0.0010     1.3430 ca         1 HT       -0.038000
     17 C14         11.4150    -0.0040     1.2860 cc         1 HT        0.267400
     18 N3          12.6350    -0.0090     0.6620 na         1 HT        0.264700
     19 C15         13.5990    -0.0040     1.6500 ca         1 HT       -0.247200
     20 C16         12.9070     0.0040     2.8750 ca         1 HT        0.043400
     21 N4          11.5820     0.0090     2.5860 nd         1 HT       -0.514100
     22 C17         13.6280     0.0100     4.0740 ca         1 HT       -0.012000
     23 C18         14.9920     0.0070     4.0510 ca         1 HT       -0.176000
     24 C19         15.6810    -0.0000     2.8390 ca         1 HT        0.036600
     25 C20         14.9870    -0.0060     1.6400 ca         1 HT       -0.126000
     26 N5          17.0790    -0.0020     2.8330 nh         1 HT       -0.364000
     27 C21         17.6110     0.0060     4.2030 c3         1 HT        0.136300
     28 C22         19.1390    -0.0760     4.1540 c3         1 HT        0.152800
     29 N6          19.6640     1.0590     3.3820 n3         1 HT       -0.548600
     30 C23         19.1310     1.0520     2.0130 c3         1 HT        0.152800
     31 C24         17.6040     1.1340     2.0610 c3         1 HT        0.136300
     32 C25         21.1320     1.0570     3.3750 c3         1 HT        0.189100
     33 HO1         -0.3140     0.8890    -0.0030 ho         1 HT        0.405000
     34 H2           1.5070     0.0010     2.1410 ha         1 HT        0.117000
     35 H3           3.9680     0.0020     2.1480 ha         1 HT        0.113500
     36 H5           3.9680    -0.0110    -2.1470 ha         1 HT        0.113500
     37 H6           1.5060    -0.0120    -2.1410 ha         1 HT        0.117000
     38 HN1          6.0820     0.1620     2.0570 hn         1 HT        0.132700
     39 H10          8.8260    -0.0220    -2.5320 ha         1 HT        0.111000
     40 H11         10.9740    -0.0190    -1.3740 ha         1 HT        0.097000
     41 H13          8.9690     0.0070     2.4250 ha         1 HT        0.126000
     42 HN3         12.7950    -0.1520    -0.3160 hn         1 HT        0.130700
     43 H17         13.1030     0.0160     5.0210 ha         1 HT        0.107000
     44 H18         15.5450     0.0120     4.9820 ha         1 HT        0.125000
     45 H20         15.5240    -0.0120     0.7000 ha         1 HT        0.113000
     46 H211        17.2220    -0.8470     4.7450 h1         1 HT        0.024700
     47 H212        17.3150     0.9230     4.6990 h1         1 HT        0.024700
     48 H221        19.4340    -1.0030     3.6780 h1         1 HT        0.014950
     49 H222        19.5330    -0.0390     5.1620 h1         1 HT        0.014950
     50 H231        19.4270     0.1360     1.5160 h1         1 HT        0.014950
     51 H232        19.5200     1.9050     1.4700 h1         1 HT        0.014950
     52 H241        17.2090     1.0970     1.0530 h1         1 HT        0.024700
     53 H242        17.3080     2.0600     2.5380 h1         1 HT        0.024700
     54 H253        21.4920     1.9210     2.8290 h1         1 HT        0.000700
     55 H252        21.4980     1.0970     4.3940 h1         1 HT        0.000700
     56 H251        21.4900     0.1530     2.8980 h1         1 HT        0.000700
@<TRIPOS>BOND
     1     1     2 1   
     2     1    33 1   
     3     2     4 ar  
     4     2     6 ar  
     5     3     5 ar  
     6     3     7 ar  
     7     3     8 1   
     8     4     5 ar  
     9     4    34 1   
    10     5    35 1   
    11     6     7 ar  
    12     6    37 1   
    13     7    36 1   
    14     8     9 1   
    15     8    12 2   
    16     9    10 1   
    17     9    38 1   
    18    10    11 ar  
    19    10    16 ar  
    20    11    12 1   
    21    11    13 ar  
    22    13    14 ar  
    23    13    39 1   
    24    14    15 ar  
    25    14    40 1   
    26    15    16 ar  
    27    15    17 1   
    28    16    41 1   
    29    17    18 1   
    30    17    21 2   
    31    18    19 1   
    32    18    42 1   
    33    19    20 ar  
    34    19    25 ar  
    35    20    21 1   
    36    20    22 ar  
    37    22    23 ar  
    38    22    43 1   
    39    23    24 ar  
    40    23    44 1   
    41    24    25 ar  
    42    24    26 1   
    43    25    45 1   
    44    26    27 1   
    45    26    31 1   
    46    27    28 1   
    47    27    46 1   
    48    27    47 1   
    49    28    29 1   
    50    28    48 1   
    51    28    49 1   
    52    29    30 1   
    53    29    32 1   
    54    30    31 1   
    55    30    50 1   
    56    30    51 1   
    57    31    52 1   
    58    31    53 1   
    59    32    54 1   
    60    32    55 1   
    61    32    56 1   
@<TRIPOS>SUBSTRUCTURE
     1 HT          1 TEMP              0 ****  ****    0 ROOT
