@<TRIPOS>MOLECULE
HT1
   62    67     1     0     0
SMALL
bcc


@<TRIPOS>ATOM
      1 C1           0.0000     0.0000     0.0000 ca         1 HT1       0.150100
      2 O1          -0.6770     0.0010    -1.1770 os         1 HT1      -0.277900
      3 C2           1.3880     0.0000     0.0000 ca         1 HT1      -0.186000
      4 C3           2.0800     0.0000     1.1920 ca         1 HT1      -0.033000
      5 C4           1.3810     0.0020     2.4020 ca         1 HT1      -0.152900
      6 C5          -0.0140     0.0040     2.3980 ca         1 HT1      -0.033000
      7 C6          -0.6980     0.0090     1.2010 ca         1 HT1      -0.186000
      8 C7           2.1180     0.0030     3.6820 cc         1 HT1       0.278400
      9 N1           1.7670     0.7190     4.7940 na         1 HT1       0.274700
     10 C8           2.7070     0.4450     5.7690 ca         1 HT1      -0.285200
     11 C9           3.6210    -0.4560     5.1890 ca         1 HT1       0.074400
     12 N2           3.2060    -0.6880     3.9270 nd         1 HT1      -0.514100
     13 C10          4.7050    -0.9250     5.9430 ca         1 HT1      -0.040000
     14 C11          4.8710    -0.5110     7.2310 ca         1 HT1      -0.116000
     15 C12          3.9650     0.3850     7.8130 ca         1 HT1      -0.102900
     16 C13          2.8830     0.8620     7.0770 ca         1 HT1      -0.038000
     17 C14          4.1580     0.8250     9.2090 cc         1 HT1       0.269400
     18 N3           4.5720     0.0210    10.2380 na         1 HT1       0.266700
     19 C15          4.6270     0.8070    11.3730 ca         1 HT1      -0.255200
     20 C16          4.2320     2.0960    10.9780 ca         1 HT1       0.047400
     21 N4           3.9660     2.0440     9.6490 nd         1 HT1      -0.511100
     22 C17          4.1880     3.1260    11.9240 ca         1 HT1      -0.014000
     23 C18          4.5270     2.8740    13.2220 ca         1 HT1      -0.180000
     24 C19          4.9190     1.5970    13.6170 ca         1 HT1       0.022600
     25 C20          4.9690     0.5650    12.6950 ca         1 HT1      -0.109000
     26 N5           5.2630     1.3570    14.9510 nh         1 HT1      -0.359000
     27 C21          5.1090     2.6310    15.6640 c3         1 HT1       0.122800
     28 C22          5.5870     2.4750    17.1070 c3         1 HT1       0.137300
     29 N6           7.0180     2.1470    17.1220 n3         1 HT1      -0.527600
     30 C23          7.1710     0.8740    16.4100 c3         1 HT1       0.137300
     31 C24          6.6930     1.0310    14.9660 c3         1 HT1       0.122800
     32 C25          7.3780     1.8960    18.5240 c3         1 HT1       0.174100
     33 C26         -2.0690     0.0020    -0.8520 c3         1 HT1       0.174400
     34 C27         -2.8930     0.0030    -2.1420 c3         1 HT1      -0.003100
     35 H2           1.9290    -0.0020    -0.9390 ha         1 HT1       0.128000
     36 H3           3.1630    -0.0010     1.1910 ha         1 HT1       0.110000
     37 H5          -0.5590     0.0080     3.3340 ha         1 HT1       0.110000
     38 H6          -1.7810     0.0100     1.1980 ha         1 HT1       0.128000
     39 HN1          1.0650     1.4320     4.8370 hn         1 HT1       0.130700
     40 H10          5.4110    -1.6180     5.5020 ha         1 HT1       0.112000
     41 H11          5.7100    -0.8780     7.8090 ha         1 HT1       0.102000
     42 H13          2.1820     1.5550     7.5270 ha         1 HT1       0.118000
     43 HN3          4.6570    -0.9760    10.2090 hn         1 HT1       0.130700
     44 H17          3.8840     4.1220    11.6270 ha         1 HT1       0.109000
     45 H18          4.4910     3.6740    13.9510 ha         1 HT1       0.132000
     46 H20          5.2750    -0.4270    13.0050 ha         1 HT1       0.112000
     47 H211         5.7020     3.3920    15.1700 h1         1 HT1       0.028200
     48 H212         4.0660     2.9200    15.6600 h1         1 HT1       0.028200
     49 H221         5.4250     3.4030    17.6410 h1         1 HT1       0.018450
     50 H222         5.0310     1.6770    17.5850 h1         1 HT1       0.018450
     51 H231         6.5790     0.1130    16.9040 h1         1 HT1       0.018450
     52 H232         8.2150     0.5840    16.4130 h1         1 HT1       0.018450
     53 H241         7.2490     1.8290    14.4890 h1         1 HT1       0.028200
     54 H242         6.8550     0.1020    14.4320 h1         1 HT1       0.028200
     55 H251         7.2300     2.7990    19.1020 h1         1 HT1       0.003367
     56 H252         6.7540     1.1050    18.9210 h1         1 HT1       0.003367
     57 H253         8.4180     1.5980    18.5810 h1         1 HT1       0.003367
     58 H261        -2.3040     0.8880    -0.2740 h1         1 HT1       0.009700
     59 H262        -2.3060    -0.8820    -0.2730 h1         1 HT1       0.009700
     60 H271        -2.7090    -0.9150    -2.6880 hc         1 HT1       0.011367
     61 H272        -3.9460     0.0730    -1.8970 hc         1 HT1       0.011367
     62 H273        -2.6070     0.8500    -2.7530 hc         1 HT1       0.011367
@<TRIPOS>BOND
     1     1     2 1   
     2     1     3 ar  
     3     1     7 ar  
     4     2    33 1   
     5     3     4 ar  
     6     3    35 1   
     7     4     5 ar  
     8     4    36 1   
     9     5     6 ar  
    10     5     8 1   
    11     6     7 ar  
    12     6    37 1   
    13     7    38 1   
    14     8     9 1   
    15     8    12 2   
    16     9    10 1   
    17     9    39 1   
    18    10    11 ar  
    19    10    16 ar  
    20    11    12 1   
    21    11    13 ar  
    22    13    14 ar  
    23    13    40 1   
    24    14    15 ar  
    25    14    41 1   
    26    15    16 ar  
    27    15    17 1   
    28    16    42 1   
    29    17    18 1   
    30    17    21 2   
    31    18    19 1   
    32    18    43 1   
    33    19    20 ar  
    34    19    25 ar  
    35    20    21 1   
    36    20    22 ar  
    37    22    23 ar  
    38    22    44 1   
    39    23    24 ar  
    40    23    45 1   
    41    24    25 ar  
    42    24    26 1   
    43    25    46 1   
    44    26    27 1   
    45    26    31 1   
    46    27    28 1   
    47    27    47 1   
    48    27    48 1   
    49    28    29 1   
    50    28    49 1   
    51    28    50 1   
    52    29    30 1   
    53    29    32 1   
    54    30    31 1   
    55    30    51 1   
    56    30    52 1   
    57    31    53 1   
    58    31    54 1   
    59    32    55 1   
    60    32    56 1   
    61    32    57 1   
    62    33    34 1   
    63    33    58 1   
    64    33    59 1   
    65    34    60 1   
    66    34    61 1   
    67    34    62 1   
@<TRIPOS>SUBSTRUCTURE
     1 HT1         1 TEMP              0 ****  ****    0 ROOT
