@<TRIPOS>MOLECULE
molecule
   50    54     1     0     0
SMALL
bcc


@<TRIPOS>ATOM
      1 N1           0.0000     0.0000     0.0000 nz         1 HT2      -0.740600
      2 N2           2.0290     0.0010    -1.1280 n2         1 HT2      -0.729100
      3 C1           1.3780     0.0000     0.0000 ce         1 HT2       0.528800
      4 C2           2.1180     0.0000     1.2800 ca         1 HT2      -0.238900
      5 C3           3.5100     0.0010     1.2790 ca         1 HT2      -0.053000
      6 C4           4.1950     0.0010     2.4820 ca         1 HT2      -0.101200
      7 C5           3.4850     0.0010     3.6960 ca         1 HT2       0.144400
      8 C6           2.0840     0.0020     3.6790 ca         1 HT2      -0.038000
      9 C7           1.4160     0.0020     2.4920 ca         1 HT2      -0.150000
     10 N3           5.5370     0.0010     2.8200 na         1 HT2      -0.246300
     11 C8           5.6060     0.0020     4.1860 cc         1 HT2       0.531400
     12 N4           4.3950    -0.0050     4.6910 nd         1 HT2      -0.589100
     13 C9           6.8550     0.0020     4.9740 ca         1 HT2      -0.114900
     14 C10          6.9490     0.7730     6.1300 ca         1 HT2      -0.062000
     15 C11          8.1210     0.7680     6.8630 ca         1 HT2      -0.092200
     16 C12          9.2140    -0.0140     6.4380 ca         1 HT2       0.114400
     17 C13          9.1020    -0.7840     5.2720 ca         1 HT2      -0.054000
     18 C14          7.9440    -0.7740     4.5560 ca         1 HT2      -0.127000
     19 N5           8.5300     1.4000     8.0210 na         1 HT2      -0.247300
     20 C15          9.8160     1.0020     8.2660 cc         1 HT2       0.450400
     21 N6          10.2090     0.1760     7.3260 nd         1 HT2      -0.566100
     22 C16         10.6400     1.4420     9.4120 ca         1 HT2      -0.041900
     23 C17         11.4700     0.5290    10.0640 ca         1 HT2      -0.089500
     24 C18         12.2380     0.9390    11.1320 ca         1 HT2      -0.084000
     25 C19         12.1870     2.2650    11.5600 ca         1 HT2      -0.184900
     26 C20         11.3530     3.1770    10.9090 ca         1 HT2      -0.084000
     27 C21         10.5890     2.7690     9.8390 ca         1 HT2      -0.089500
     28 C22         13.0120     2.7060    12.7070 ce         1 HT2       0.536800
     29 N7          12.9610     4.0170    13.1290 nz         1 HT2      -0.801600
     30 N8          13.7870     1.8550    13.3170 n2         1 HT2      -0.670100
     31 HN11        -0.3340    -0.0010    -0.9440 hn         1 HT2       0.475133
     32 HN12        -0.3340    -0.8170     0.4720 hn         1 HT2       0.475133
     33 HN2          3.0300     0.0010    -1.1300 hn         1 HT2       0.479400
     34 H3           4.0510    -0.1160     0.3480 ha         1 HT2       0.136000
     35 H6           1.5320     0.0030     4.6110 ha         1 HT2       0.170000
     36 H7           0.3330     0.0030     2.4850 ha         1 HT2       0.113000
     37 HN3          6.3100     0.0050     2.1850 hn         1 HT2       0.323700
     38 H10          6.1470     1.4510     6.3950 ha         1 HT2       0.152000
     39 H13          9.9380    -1.3880     4.9410 ha         1 HT2       0.163000
     40 H14          7.8640    -1.3730     3.6570 ha         1 HT2       0.141000
     41 HN5          7.9860     2.0280     8.5790 hn         1 HT2       0.312700
     42 H17         11.5100    -0.5010     9.7320 ha         1 HT2       0.170000
     43 H18         12.8840     0.2320    11.6380 ha         1 HT2       0.145500
     44 H20         11.3130     4.2070    11.2410 ha         1 HT2       0.145500
     45 H21          9.9420     3.4760     9.3350 ha         1 HT2       0.170000
     46 HN71        13.5790     4.1410    13.9070 hn         1 HT2       0.466800
     47 HN72        13.2430     4.6200    12.3810 hn         1 HT2       0.466800
     48 HN8         14.3460     2.1520    14.0920 hn         1 HT2       0.439400
     49 H131        -0.3340     0.8180     0.4700 hn         1 HT2       0.475133
     50 H73         12.0270     4.2420    13.4080 hn         1 HT2       0.466800
@<TRIPOS>BOND
     1     1     3 1
     2     1    31 1
     3     1    32 1
     4     2     3 2
     5     2    33 1
     6     3     4 1
     7     4     5 ar
     8     4     9 ar
     9     5     6 ar
    10     5    34 1
    11     6     7 ar
    12     6    10 1
    13     7     8 ar
    14     7    12 1
    15     8     9 ar
    16     8    35 1
    17     9    36 1
    18    10    11 1
    19    10    37 1
    20    11    12 2
    21    11    13 1
    22    13    14 ar
    23    13    18 ar
    24    14    15 ar
    25    14    38 1
    26    15    16 ar
    27    15    19 1
    28    16    17 ar
    29    16    21 1
    30    17    18 ar
    31    17    39 1
    32    18    40 1
    33    19    20 1
    34    19    41 1
    35    20    21 2
    36    20    22 1
    37    22    23 ar
    38    22    27 ar
    39    23    24 ar
    40    23    42 1
    41    24    25 ar
    42    24    43 1
    43    25    26 ar
    44    25    28 1
    45    26    27 ar
    46    26    44 1
    47    27    45 1
    48    28    29 1
    49    28    30 2
    50    29    46 1
    51    29    47 1
    52    30    48 1
    53    49     1 1
    54    50    29 1
@<TRIPOS>SUBSTRUCTURE
     1 HT2         1 TEMP              0 ****  ****    0 ROOT
