@<TRIPOS>MOLECULE
molecule
   26    25     1     0     0
SMALL
bcc


@<TRIPOS>ATOM
      1 C1           0.0000     0.0000     0.0000 c3         1 HT3       0.115400
      2 O1          -0.4760     1.2220     0.5690 oh         1 HT3      -0.613800
      3 C2           1.5310     0.0000     0.0000 c3         1 HT3       0.141100
      4 O2           2.0060     0.0000     1.3470 oh         1 HT3      -0.603800
      5 C3           2.0390    -1.2500    -0.7200 c3         1 HT3       0.144100
      6 O3           1.5630    -1.2500    -2.0680 oh         1 HT3      -0.605800
      7 C4           3.5700    -1.2500    -0.7210 c3         1 HT3      -0.090400
      8 C5           4.0790    -2.5580    -1.3300 c3         1 HT3      -0.082400
      9 C6           5.6090    -2.5590    -1.3300 c3         1 HT3      -0.082400
     10 C7           6.1190    -3.8670    -1.9390 c3         1 HT3      -0.092100
     11 H1          -0.3610    -0.0890    -1.0170 h1         1 HT3       0.032700
     12 H1A         -0.3610    -0.8360     0.5860 h1         1 HT3       0.032700
     13 HO1         -1.4110     1.2730     0.4660 ho         1 HT3       0.404000
     14 H2           1.8920     0.8840    -0.5110 h1         1 HT3       0.056700
     15 HO2          2.2180     0.8820     1.6060 ho         1 HT3       0.415000
     16 H3           1.6780    -2.1340    -0.2090 h1         1 HT3       0.043700
     17 HO3          1.0750    -2.0400    -2.2290 ho         1 HT3       0.404000
     18 H4           3.9300    -0.4140    -1.3080 hc         1 HT3       0.058700
     19 H4A          3.9310    -1.1600     0.2960 hc         1 HT3       0.058700
     20 H5           3.7180    -2.6480    -2.3470 hc         1 HT3       0.042200
     21 H5A          3.7180    -3.3940    -0.7430 hc         1 HT3       0.042200
     22 H6           5.9700    -1.7220    -1.9160 hc         1 HT3       0.041200
     23 H6A          5.9700    -2.4690    -0.3120 hc         1 HT3       0.041200
     24 H7           5.7630    -4.7030    -1.3490 hc         1 HT3       0.032367
     25 H7A          5.7530    -3.9590    -2.9540 hc         1 HT3       0.032367
     26 H7B          7.2020    -3.8640    -1.9440 hc         1 HT3       0.032367
@<TRIPOS>BOND
     1     1     2 1
     2     1     3 1
     3     3     4 1
     4     3     5 1
     5     5     6 1
     6     5     7 1
     7     7     8 1
     8     8     9 1
     9     9    10 1
    10     1    11 1
    11     1    12 1
    12     2    13 1
    13     3    14 1
    14     4    15 1
    15     5    16 1
    16     6    17 1
    17     7    18 1
    18     7    19 1
    19     8    20 1
    20     8    21 1
    21     9    22 1
    22     9    23 1
    23    10    24 1
    24    10    25 1
    25    10    26 1
@<TRIPOS>SUBSTRUCTURE
     1 HT3         1 TEMP              0 ****  ****    0 ROOT
