@<TRIPOS>MOLECULE
HT3
   26    25     1     0     0
SMALL
bcc


@<TRIPOS>ATOM
      1 C1          0.0080    0.0890    0.0030 c3        1 HT3      0.095400
      2 O1         -0.3330    1.2400    0.7630 oh        1 HT3     -0.618800
      3 C2          1.5370    0.0140    0.0040 c3        1 HT3      0.147100
      4 O2          2.0380   -0.1160    1.3270 oh        1 HT3     -0.607800
      5 C3          2.0130   -1.2310   -0.7680 c3        1 HT3      0.143100
      6 O3          1.3830   -1.1610   -2.0430 oh        1 HT3     -0.610800
      7 C4          3.5330   -1.2410   -0.8790 c3        1 HT3     -0.118400
      8 C5          4.0600   -2.5970   -1.2940 c3        1 HT3     -0.080400
      9 C6          5.5710   -2.5880   -1.3960 c3        1 HT3     -0.079400
     10 C7          6.1050   -3.9360   -1.8080 c3        1 HT3     -0.093100
     11 H1         -0.4280   -0.8270    0.4820 h1        1 HT3      0.045200
     12 H1A        -0.3670    0.1820   -1.0500 h1        1 HT3      0.045200
     13 HO1        -1.2930    1.3130    0.7390 ho        1 HT3      0.408000
     14 H2          1.9600    0.9440   -0.4670 h1        1 HT3      0.056700
     15 HO2         1.6210    0.5850    1.8450 ho        1 HT3      0.424000
     16 H3          1.6570   -2.1570   -0.2350 h1        1 HT3      0.049700
     17 HO3         1.8370   -1.7920   -2.6140 ho        1 HT3      0.408000
     18 H4          3.9590   -0.9610    0.1210 hc        1 HT3      0.064200
     19 H4A         3.8540   -0.4630   -1.6190 hc        1 HT3      0.064200
     20 H5          3.7390   -3.3710   -0.5480 hc        1 HT3      0.037200
     21 H5A         3.6230   -2.8930   -2.2850 hc        1 HT3      0.037200
     22 H6          5.8910   -1.8120   -2.1390 hc        1 HT3      0.041700
     23 H6A         6.0080   -2.2960   -0.4040 hc        1 HT3      0.041700
     24 H7          5.7000   -4.2330   -2.8060 hc        1 HT3      0.033367
     25 H7A         5.8160   -4.7190   -1.0660 hc        1 HT3      0.033367
     26 H7B         7.2190   -3.9070   -1.8740 hc        1 HT3      0.033367
@<TRIPOS>BOND
     1    1    2 1   
     2    1    3 1   
     3    1   11 1   
     4    1   12 1   
     5    2   13 1   
     6    3    4 1   
     7    3    5 1   
     8    3   14 1   
     9    4   15 1   
    10    5    6 1   
    11    5    7 1   
    12    5   16 1   
    13    6   17 1   
    14    7    8 1   
    15    7   18 1   
    16    7   19 1   
    17    8    9 1   
    18    8   20 1   
    19    8   21 1   
    20    9   10 1   
    21    9   22 1   
    22    9   23 1   
    23   10   24 1   
    24   10   25 1   
    25   10   26 1   
@<TRIPOS>SUBSTRUCTURE
     1 HT3         1 TEMP              0 ****  ****    0 ROOT
