@<TRIPOS>MOLECULE
HT4
   17    17     1     0     0
SMALL
bcc


@<TRIPOS>ATOM
      1 O1         -0.0050    0.0930    0.2260 oh        1 HT4     -0.495100
      2 C1          1.3570    0.0720    0.0880 ca        1 HT4      0.175100
      3 C6          2.0970   -0.0680    1.2790 ca        1 HT4     -0.169000
      4 C5          3.4810   -0.0950    1.2200 ca        1 HT4     -0.071000
      5 C4          4.1520    0.0120   -0.0090 ca        1 HT4     -0.126300
      6 C7          5.6320   -0.0320   -0.0490 c3        1 HT4     -0.047800
      7 C3          3.4080    0.1470   -1.1800 ca        1 HT4     -0.052000
      8 C2          2.0100    0.1830   -1.1530 ca        1 HT4     -0.107100
      9 S1          1.1150    0.2730   -2.6040 sh        1 HT4     -0.309700
     10 H1         -0.3950    0.1840   -0.6640 ho        1 HT4      0.440000
     11 H2          1.5610   -0.1530    2.2350 ha        1 HT4      0.154000
     12 H3          4.0660   -0.2020    2.1470 ha        1 HT4      0.137000
     13 H4          6.0650    0.6660    0.7110 hc        1 HT4      0.044033
     14 H5          6.0200    0.2580   -1.0560 hc        1 HT4      0.044033
     15 H6          5.9920   -1.0660    0.1820 hc        1 HT4      0.044033
     16 H7          3.9240    0.2230   -2.1520 ha        1 HT4      0.143000
     17 H8          1.2870    1.5580   -2.8810 hs        1 HT4      0.194800
@<TRIPOS>BOND
     1    1    2 1   
     2    1   10 1   
     3    2    3 ar  
     4    2    8 ar  
     5    3    4 ar  
     6    3   11 1   
     7    4    5 ar  
     8    4   12 1   
     9    5    6 1   
    10    5    7 ar  
    11    6   13 1   
    12    6   14 1   
    13    6   15 1   
    14    7    8 ar  
    15    7   16 1   
    16    8    9 1   
    17    9   17 1   
@<TRIPOS>SUBSTRUCTURE
     1 HT4         1 TEMP              0 ****  ****    0 ROOT
