@<TRIPOS>MOLECULE
molecule
   17    17     1     0     0
SMALL
bcc


@<TRIPOS>ATOM
      1 O1           0.0000     0.0000     0.0000 oh         1 HT4      -0.509100
      2 C1           1.3600     0.0000     0.0000 ca         1 HT4       0.144100
      3 C6           2.0540     0.0000     1.1980 ca         1 HT4      -0.166000
      4 C5           3.4380     0.0010     1.1960 ca         1 HT4      -0.094000
      5 C4           4.1310    -0.0000     0.0000 ca         1 HT4      -0.101300
      6 C7           5.6380     0.0060     0.0050 c3         1 HT4      -0.046800
      7 C3           3.4460    -0.0000    -1.2010 ca         1 HT4      -0.083000
      8 C2           2.0590    -0.0060    -1.2070 ca         1 HT4       0.011900
      9 S1           1.1810    -0.0070    -2.7350 sh         1 HT4      -0.349700
     10 H1          -0.3140     0.8720     0.1720 ho         1 HT4       0.426000
     11 H2           1.5140     0.0010     2.1360 ha         1 HT4       0.143000
     12 H3           3.9790     0.0010     2.1340 ha         1 HT4       0.136000
     13 H4           5.9970    -0.2400     0.9970 hc         1 HT4       0.045367
     14 H5           5.9960     0.9900    -0.2740 hc         1 HT4       0.045367
     15 H6           6.0040    -0.7260    -0.7040 hc         1 HT4       0.045367
     16 H7           3.9920    -0.0030    -2.1360 ha         1 HT4       0.145000
     17 H8           1.3090    -1.1930    -3.3180 hs         1 HT4       0.209800
@<TRIPOS>BOND
     1     6     5 1
     2     5     7 ar
     3     5     4 ar
     4     7     8 ar
     5     4     3 ar
     6     8     9 1
     7     8     2 ar
     8     3     2 ar
     9     2     1 1
    10     1    10 1
    11     3    11 1
    12     4    12 1
    13     6    13 1
    14     6    14 1
    15     6    15 1
    16     7    16 1
    17     9    17 1
@<TRIPOS>SUBSTRUCTURE
     1 HT4         1 TEMP              0 ****  ****    0 ROOT
