@<TRIPOS>MOLECULE
HT5
   44    44     1     0     0
SMALL
bcc


@<TRIPOS>ATOM
      1 O1           0.0000     0.0000     0.0000 o          1 HT5      -0.370000
      2 C10          1.2130     0.0000     0.0000 c2         1 HT5       0.226000
      3 N2           1.8870     0.0000     1.1660 ns         1 HT5      -0.026000
      4 SD           0.9770     1.6430     4.3790 ss         1 HT5       0.455000
      5 C11          1.1550     0.0000     2.4360 c3         1 HT5      -0.082000
      6 C12          0.8050     1.4120     2.8050 c2         1 HT5       0.017000
      7 O2           0.4020     2.3530     1.9340 oh         1 HT5      -0.054000
      8 C13          2.0260    -0.6390     3.5220 c3         1 HT5      -0.108000
      9 C14          1.5380    -0.0210     4.8480 c3         1 HT5      -0.177000
     10 C9           1.9660    -0.0060    -1.3060 c3         1 HT5      -0.114000
     11 C2           0.9710    -0.0130    -2.4680 c3         1 HT5      -0.095000
     12 C1           1.7350    -0.0190    -3.7930 c3         1 HT5      -0.109000
     13 C50          0.7400    -0.0250    -4.9560 c3         1 HT5      -0.105000
     14 C8           1.0430    -0.0560   -11.2570 c3         1 HT5      -0.111000
     15 C6           0.2790    -0.0500    -9.9320 c3         1 HT5      -0.106000
     16 C3           1.5050    -0.0310    -6.2810 c3         1 HT5      -0.107000
     17 C4           0.5100    -0.0370    -7.4440 c3         1 HT5      -0.107000
     18 C5           1.2740    -0.0430    -8.7690 c3         1 HT5      -0.108000
     19 H2           0.0630     3.0950     2.4060 ho         1 HT5       0.249000
     20 H11          0.2430    -0.5750     2.3280 h1         1 HT5       0.158000
     21 H141         2.3530     0.0410     5.5590 h1         1 HT5       0.134000
     22 H142         0.7140    -0.5970     5.2530 h1         1 HT5       0.134000
     23 H131         3.0690    -0.3950     3.3570 hc         1 HT5       0.108000
     24 H132         1.8820    -1.7120     3.5340 hc         1 HT5       0.108000
     25 HA           2.8880    -0.0040     1.1660 hn         1 HT5       0.115000
     26 H9C1         2.5880     0.8790    -1.3680 hc         1 HT5       0.076500
     27 H9C2         2.5890    -0.8900    -1.3590 hc         1 HT5       0.076500
     28 H2C1         0.3490    -0.8970    -2.4060 hc         1 HT5       0.071000
     29 H2C2         0.3480     0.8720    -2.4150 hc         1 HT5       0.071000
     30 H1C1         2.3580     0.8650    -3.8550 hc         1 HT5       0.054000
     31 H1C2         2.3590    -0.9040    -3.8460 hc         1 HT5       0.054000
     32 H501         0.1170     0.8600    -4.9030 hc         1 HT5       0.057500
     33 H502         0.1180    -0.9090    -4.8940 hc         1 HT5       0.057500
     34 H3C1         2.1270     0.8530    -6.3430 hc         1 HT5       0.054500
     35 H3C2         2.1280    -0.9160    -6.3350 hc         1 HT5       0.054500
     36 H4C1        -0.1130    -0.9220    -7.3820 hc         1 HT5       0.055000
     37 H4C2        -0.1130     0.8470    -7.3900 hc         1 HT5       0.055000
     38 H5C1         1.8780    -0.9420    -8.8050 hc         1 HT5       0.054500
     39 H5C2         1.9150     0.8260    -8.8470 hc         1 HT5       0.054500
     40 H6C1        -0.3440     0.8350    -9.8790 hc         1 HT5       0.052000
     41 H6C2        -0.3440    -0.9340    -9.8700 hc         1 HT5       0.052000
     42 H8C1         0.3390    -0.0600   -12.0800 hc         1 HT5       0.041333
     43 H8C2         1.6670    -0.9400   -11.3100 hc         1 HT5       0.041333
     44 H8C3         1.6660     0.8290   -11.3190 hc         1 HT5       0.041333
@<TRIPOS>BOND
     1     1     2 1   
     2     2     3 1   
     3     2    10 1   
     4     3     5 1   
     5     3    25 1   
     6     4     6 1   
     7     4     9 1   
     8     5     6 1   
     9     5     8 1   
    10     5    20 1   
    11     6     7 1   
    12     7    19 1   
    13     8     9 1   
    14     8    23 1   
    15     8    24 1   
    16     9    21 1   
    17     9    22 1   
    18    10    11 1   
    19    10    26 1   
    20    10    27 1   
    21    11    12 1   
    22    11    28 1   
    23    11    29 1   
    24    12    13 1   
    25    12    30 1   
    26    12    31 1   
    27    13    16 1   
    28    13    32 1   
    29    13    33 1   
    30    14    15 1   
    31    14    42 1   
    32    14    43 1   
    33    14    44 1   
    34    15    18 1   
    35    15    40 1   
    36    15    41 1   
    37    16    17 1   
    38    16    34 1   
    39    16    35 1   
    40    17    18 1   
    41    17    36 1   
    42    17    37 1   
    43    18    38 1   
    44    18    39 1   
@<TRIPOS>SUBSTRUCTURE
     1 HT5         1 TEMP              0 ****  ****    0 ROOT
