@<TRIPOS>MOLECULE
molecule
   44    44     1     0     0
SMALL
bcc


@<TRIPOS>ATOM
      1 O1           0.0000     0.0000     0.0000 o          1 HT5      -0.576100
      2 C10          1.2130     0.0000     0.0000 c          1 HT5       0.660100
      3 N2           1.8870     0.0000     1.1660 ns         1 HT5      -0.588900
      4 SD           0.9770     1.6430     4.3790 s2         1 HT5       0.407900
      5 C11          1.1550     0.0000     2.4360 c3         1 HT5       0.099900
      6 C12          0.8050     1.4120     2.8050 c2         1 HT5      -0.048100
      7 O2           0.4020     2.3530     1.9340 oh         1 HT5      -0.326100
      8 C13          2.0260    -0.6390     3.5220 c3         1 HT5      -0.093400
      9 C14          1.5380    -0.0210     4.8480 c3         1 HT5      -0.056300
     10 C9           1.9660    -0.0060    -1.3060 c3         1 HT5      -0.148400
     11 C2           0.9710    -0.0130    -2.4680 c3         1 HT5      -0.068400
     12 C1           1.7350    -0.0190    -3.7930 c3         1 HT5      -0.084400
     13 C50          0.7400    -0.0250    -4.9560 c3         1 HT5      -0.079400
     14 C8           1.0430    -0.0560   -11.2570 c3         1 HT5      -0.092100
     15 C6           0.2790    -0.0500    -9.9320 c3         1 HT5      -0.083400
     16 C3           1.5050    -0.0310    -6.2810 c3         1 HT5      -0.082400
     17 C4           0.5100    -0.0370    -7.4440 c3         1 HT5      -0.081400
     18 C5           1.2740    -0.0430    -8.7690 c3         1 HT5      -0.081400
     19 H2           0.0630     3.0950     2.4060 ho         1 HT5       0.470000
     20 H11          0.2430    -0.5750     2.3280 h1         1 HT5       0.150700
     21 H141         2.3530     0.0410     5.5590 h1         1 HT5       0.132700
     22 H142         0.7140    -0.5970     5.2530 h1         1 HT5       0.132700
     23 H131         3.0690    -0.3950     3.3570 hc         1 HT5       0.108200
     24 H132         1.8820    -1.7120     3.5340 hc         1 HT5       0.108200
     25 HA           2.8880    -0.0040     1.1660 hn         1 HT5       0.338500
     26 H9C1         2.5880     0.8790    -1.3680 hc         1 HT5       0.071700
     27 H9C2         2.5890    -0.8900    -1.3590 hc         1 HT5       0.071700
     28 H2C1         0.3490    -0.8970    -2.4060 hc         1 HT5       0.061700
     29 H2C2         0.3480     0.8720    -2.4150 hc         1 HT5       0.061700
     30 H1C1         2.3580     0.8650    -3.8550 hc         1 HT5       0.042700
     31 H1C2         2.3590    -0.9040    -3.8460 hc         1 HT5       0.042700
     32 H501         0.1170     0.8600    -4.9030 hc         1 HT5       0.045700
     33 H502         0.1180    -0.9090    -4.8940 hc         1 HT5       0.045700
     34 H3C1         2.1270     0.8530    -6.3430 hc         1 HT5       0.042200
     35 H3C2         2.1280    -0.9160    -6.3350 hc         1 HT5       0.042200
     36 H4C1        -0.1130    -0.9220    -7.3820 hc         1 HT5       0.042700
     37 H4C2        -0.1130     0.8470    -7.3900 hc         1 HT5       0.042700
     38 H5C1         1.8780    -0.9420    -8.8050 hc         1 HT5       0.042200
     39 H5C2         1.9150     0.8260    -8.8470 hc         1 HT5       0.042200
     40 H6C1        -0.3440     0.8350    -9.8790 hc         1 HT5       0.040700
     41 H6C2        -0.3440    -0.9340    -9.8700 hc         1 HT5       0.040700
     42 H8C1         0.3390    -0.0600   -12.0800 hc         1 HT5       0.034700
     43 H8C2         1.6670    -0.9400   -11.3100 hc         1 HT5       0.034700
     44 H8C3         1.6660     0.8290   -11.3190 hc         1 HT5       0.034700
@<TRIPOS>BOND
     1     7     6 1
     2     6     4 2
     3     6     5 1
     4     4     9 1
     5     9     8 1
     6     8     5 1
     7     5     3 1
     8     3     2 1
     9     2     1 2
    10     2    10 1
    11    10    11 1
    12    11    12 1
    13    12    13 1
    14    13    16 1
    15    16    17 1
    16    17    18 1
    17    18    15 1
    18    15    14 1
    19     7    19 1
    20     5    20 1
    21     9    21 1
    22     9    22 1
    23     8    23 1
    24     8    24 1
    25     3    25 1
    26    10    26 1
    27    10    27 1
    28    11    28 1
    29    11    29 1
    30    12    30 1
    31    12    31 1
    32    13    32 1
    33    13    33 1
    34    16    34 1
    35    16    35 1
    36    17    36 1
    37    17    37 1
    38    18    38 1
    39    18    39 1
    40    15    40 1
    41    15    41 1
    42    14    42 1
    43    14    43 1
    44    14    44 1
@<TRIPOS>SUBSTRUCTURE
     1 HT5         1 TEMP              0 ****  ****    0 ROOT
