@<TRIPOS>MOLECULE
HT6
   54    56     1     0     0
SMALL
bcc


@<TRIPOS>ATOM
      1 O3A          0.0000     0.0000     0.0000 oh         1 HT6      -0.564800
      2 C3A          1.4290     0.0000     0.0000 c3         1 HT6       0.189100
      3 C4A          1.9660     0.0000     1.4460 c3         1 HT6      -0.050700
      4 C5A          2.8670    -1.2150     1.6790 c3         1 HT6       0.089700
      5 S5A          3.3650    -1.2730     3.4220 ss         1 HT6      -0.405200
      6 C20          4.4100    -2.7530     3.4990 c3         1 HT6       0.084700
      7 C21          4.9180    -2.9450     4.9290 c3         1 HT6      -0.009400
      8 C22          5.8000    -4.1940     4.9940 c3         1 HT6      -0.029400
      9 C23          6.3070    -4.3860     6.4250 c3         1 HT6      -0.028400
     10 C24          7.1890    -5.6350     6.4890 c3         1 HT6      -0.028400
     11 C25          7.6970    -5.8270     7.9200 c3         1 HT6       0.006900
     12 C2A          1.9660     1.3050    -0.6270 c3         1 HT6       0.116800
     13 N1A          2.2150     2.2010     0.5310 n3         1 HT6      -0.515600
     14 C1A          2.7810     1.3050     1.5720 c3         1 HT6       0.148800
     15 C10          3.1650     3.2640     0.1780 c3         1 HT6       0.250000
     16 C9           2.4760     4.2870    -0.6870 cc         1 HT6      -0.256000
     17 C4           1.6020     5.3630    -0.2310 ca         1 HT6       0.419100
     18 N3           1.1560     5.7740     0.9600 nb         1 HT6      -0.558000
     19 C2           0.3520     6.8110     1.0470 ca         1 HT6       0.592900
     20 N1          -0.0490     7.4870    -0.0150 nb         1 HT6      -0.627000
     21 C6           0.3440     7.1490    -1.2390 ca         1 HT6       0.532200
     22 N6          -0.0860     7.8670    -2.3430 nv         1 HT6      -0.658500
     23 C5           1.2000     6.0530    -1.3890 ca         1 HT6      -0.474800
     24 N7           1.7950     5.4320    -2.4620 na         1 HT6       0.392600
     25 C8           2.5560     4.3850    -2.0280 cd         1 HT6      -0.266100
     26 H1          -0.3140    -0.6240    -0.6330 ho         1 HT6       0.382000
     27 H2           1.8110    -0.8580    -0.5400 h1         1 HT6      -0.001300
     28 H3           1.1420     0.0050     2.1500 hc         1 HT6       0.072700
     29 H4           2.3260    -2.1190     1.4280 h1         1 HT6       0.032200
     30 H5           3.7490    -1.1360     1.0540 h1         1 HT6       0.032200
     31 H6           5.2530    -2.6350     2.8290 h1         1 HT6       0.031700
     32 H7           3.8310    -3.6190     3.2020 h1         1 HT6       0.031700
     33 H8           5.4970    -2.0790     5.2260 hc         1 HT6       0.029200
     34 H9           4.0750    -3.0620     5.5990 hc         1 HT6       0.029200
     35 H10          5.2210    -5.0600     4.6970 hc         1 HT6       0.014700
     36 H11          6.6430    -4.0770     4.3250 hc         1 HT6       0.014700
     37 H12          6.8860    -3.5200     6.7230 hc         1 HT6       0.017200
     38 H13          5.4640    -4.5050     7.0950 hc         1 HT6       0.017200
     39 H14          6.6110    -6.5010     6.1920 hc         1 HT6       0.011700
     40 H15          8.0320    -5.5160     5.8190 hc         1 HT6       0.011700
     41 H16          8.3210    -6.7110     7.9660 hc         1 HT6       0.001033
     42 H17          6.8530    -5.9450     8.5890 hc         1 HT6       0.001033
     43 H18          8.2750    -4.9600     8.2170 hc         1 HT6       0.001033
     44 H19          2.8890     1.1140    -1.1610 h1         1 HT6       0.019200
     45 H20          1.2230     1.7390    -1.2860 h1         1 HT6       0.019200
     46 H22          2.6480     1.7390     2.5560 h1         1 HT6       0.024700
     47 H23          3.8290     1.1140     1.3750 h1         1 HT6       0.024700
     48 H24          4.0000     2.8370    -0.3640 h1         1 HT6       0.012700
     49 H25          3.5270     3.7400     1.0810 h1         1 HT6       0.012700
     50 H26          0.0060     7.1220     2.0250 h5         1 HT6      -0.001900
     51 H27         -0.9360     7.6120    -2.8060 hn         1 HT6       0.276300
     52 H28          0.4340     8.6640    -2.6550 hn         1 HT6       0.276300
     53 H29          1.6910     5.7100    -3.4170 hn         1 HT6       0.115700
     54 H30          3.1380     3.7320    -2.6660 h4         1 HT6       0.142000
@<TRIPOS>BOND
     1     1     2 1   
     2     1    26 1   
     3     2     3 1   
     4     2    12 1   
     5     2    27 1   
     6     3     4 1   
     7     3    14 1   
     8     3    28 1   
     9     4     5 1   
    10     4    29 1   
    11     4    30 1   
    12     5     6 1   
    13     6     7 1   
    14     6    31 1   
    15     6    32 1   
    16     7     8 1   
    17     7    33 1   
    18     7    34 1   
    19     8     9 1   
    20     8    35 1   
    21     8    36 1   
    22     9    10 1   
    23     9    37 1   
    24     9    38 1   
    25    10    11 1   
    26    10    39 1   
    27    10    40 1   
    28    11    41 1   
    29    11    42 1   
    30    11    43 1   
    31    12    13 1   
    32    12    44 1   
    33    12    45 1   
    34    13    14 1   
    35    13    15 1   
    36    14    46 1   
    37    14    47 1   
    38    15    16 1   
    39    15    48 1   
    40    15    49 1   
    41    16    17 1   
    42    16    25 2   
    43    17    18 ar  
    44    17    23 ar  
    45    18    19 ar  
    46    19    20 ar  
    47    19    50 1   
    48    20    21 ar  
    49    21    22 1   
    50    21    23 ar  
    51    22    51 1   
    52    22    52 1   
    53    23    24 1   
    54    24    25 1   
    55    24    53 1   
    56    25    54 1   
@<TRIPOS>SUBSTRUCTURE
     1 HT6         1 TEMP              0 ****  ****    0 ROOT
