@<TRIPOS>MOLECULE
molecule
   54    56     1     0     0
SMALL
bcc


@<TRIPOS>ATOM
      1 O3A          0.0000     0.0000     0.0000 oh         1 HT6      -0.584800
      2 C3A          1.4290     0.0000     0.0000 c3         1 HT6       0.147100
      3 C4A          1.9660     0.0000     1.4460 c3         1 HT6      -0.067700
      4 C5A          2.8670    -1.2150     1.6790 c3         1 HT6       0.018700
      5 S5A          3.3650    -1.2730     3.4220 ss         1 HT6      -0.351200
      6 C20          4.4100    -2.7530     3.4990 c3         1 HT6       0.015700
      7 C21          4.9180    -2.9450     4.9290 c3         1 HT6      -0.067400
      8 C22          5.8000    -4.1940     4.9940 c3         1 HT6      -0.080400
      9 C23          6.3070    -4.3860     6.4250 c3         1 HT6      -0.081400
     10 C24          7.1890    -5.6350     6.4890 c3         1 HT6      -0.084400
     11 C25          7.6970    -5.8270     7.9200 c3         1 HT6      -0.092100
     12 C2A          1.9660     1.3050    -0.6270 c3         1 HT6       0.121800
     13 N1A          2.2150     2.2010     0.5310 n3         1 HT6      -0.672600
     14 C1A          2.7810     1.3050     1.5720 c3         1 HT6       0.147800
     15 C10          3.1650     3.2640     0.1780 c3         1 HT6       0.232000
     16 C9           2.4760     4.2870    -0.6870 cc         1 HT6      -0.256000
     17 C4           1.6020     5.3630    -0.2310 ca         1 HT6       0.471100
     18 N3           1.1560     5.7740     0.9600 nb         1 HT6      -0.692000
     19 C2           0.3520     6.8110     1.0470 ca         1 HT6       0.658900
     20 N1          -0.0490     7.4870    -0.0150 nb         1 HT6      -0.747000
     21 C6           0.3440     7.1490    -1.2390 ca         1 HT6       0.705200
     22 N6          -0.0860     7.8670    -2.3430 nv         1 HT6      -1.085500
     23 C5           1.2000     6.0530    -1.3890 ca         1 HT6      -0.294800
     24 N7           1.7950     5.4320    -2.4620 na         1 HT6      -0.163400
     25 C8           2.5560     4.3850    -2.0280 cd         1 HT6      -0.088100
     26 H1          -0.3140    -0.6240    -0.6330 ho         1 HT6       0.396000
     27 H2           1.8110    -0.8580    -0.5400 h1         1 HT6       0.029700
     28 H3           1.1420     0.0050     2.1500 hc         1 HT6       0.099700
     29 H4           2.3260    -2.1190     1.4280 h1         1 HT6       0.054700
     30 H5           3.7490    -1.1360     1.0540 h1         1 HT6       0.054700
     31 H6           5.2530    -2.6350     2.8290 h1         1 HT6       0.054700
     32 H7           3.8310    -3.6190     3.2020 h1         1 HT6       0.054700
     33 H8           5.4970    -2.0790     5.2260 hc         1 HT6       0.055700
     34 H9           4.0750    -3.0620     5.5990 hc         1 HT6       0.055700
     35 H10          5.2210    -5.0600     4.6970 hc         1 HT6       0.041700
     36 H11          6.6430    -4.0770     4.3250 hc         1 HT6       0.041700
     37 H12          6.8860    -3.5200     6.7230 hc         1 HT6       0.043700
     38 H13          5.4640    -4.5050     7.0950 hc         1 HT6       0.043700
     39 H14          6.6110    -6.5010     6.1920 hc         1 HT6       0.039700
     40 H15          8.0320    -5.5160     5.8190 hc         1 HT6       0.039700
     41 H16          8.3210    -6.7110     7.9660 hc         1 HT6       0.033367
     42 H17          6.8530    -5.9450     8.5890 hc         1 HT6       0.033367
     43 H18          8.2750    -4.9600     8.2170 hc         1 HT6       0.033367
     44 H19          2.8890     1.1140    -1.1610 h1         1 HT6       0.045700
     45 H20          1.2230     1.7390    -1.2860 h1         1 HT6       0.045700
     46 H22          2.6480     1.7390     2.5560 h1         1 HT6       0.051200
     47 H23          3.8290     1.1140     1.3750 h1         1 HT6       0.051200
     48 H24          4.0000     2.8370    -0.3640 h1         1 HT6       0.043200
     49 H25          3.5270     3.7400     1.0810 h1         1 HT6       0.043200
     50 H26          0.0060     7.1220     2.0250 h5         1 HT6       0.059100
     51 H27         -0.9360     7.6120    -2.8060 hn         1 HT6       0.436800
     52 H28          0.4340     8.6640    -2.6550 hn         1 HT6       0.436800
     53 H29          1.6910     5.7100    -3.4170 hn         1 HT6       0.301700
     54 H30          3.1380     3.7320    -2.6660 h4         1 HT6       0.168000
@<TRIPOS>BOND
     1     1     2 1
     2     2     3 1
     3     2    12 1
     4    13    14 1
     5    13    12 1
     6    13    15 1
     7    14     3 1
     8     3     4 1
     9     9     8 1
    10     9    10 1
    11     8     7 1
    12    15    16 1
    13     6     7 1
    14     6     5 1
    15    11    10 1
    16     5     4 1
    17    16    25 2
    18    16    17 1
    19    25    24 1
    20    17    18 ar
    21    17    23 ar
    22    18    19 ar
    23    24    23 1
    24    23    21 ar
    25    19    20 ar
    26    20    21 ar
    27    21    22 1
    28     1    26 1
    29     2    27 1
    30     3    28 1
    31     4    29 1
    32     4    30 1
    33     6    31 1
    34     6    32 1
    35     7    33 1
    36     7    34 1
    37     8    35 1
    38     8    36 1
    39     9    37 1
    40     9    38 1
    41    10    39 1
    42    10    40 1
    43    11    41 1
    44    11    42 1
    45    11    43 1
    46    12    44 1
    47    12    45 1
    48    14    46 1
    49    14    47 1
    50    15    48 1
    51    15    49 1
    52    19    50 1
    53    22    51 1
    54    22    52 1
    55    24    53 1
    56    25    54 1
@<TRIPOS>SUBSTRUCTURE
     1 HT6         1 TEMP              0 ****  ****    0 ROOT
