@<TRIPOS>MOLECULE
molecule
   56    56     1     0     0
SMALL
bcc


@<TRIPOS>ATOM
      1 C1           0.0000     0.0000     0.0000 c          1 HTA       0.671100
      2 C2           1.5070     0.0000     0.0000 c3         1 HTA      -0.136400
      3 C3           2.0170     0.0000     1.4420 c3         1 HTA      -0.124700
      4 C4           3.5230     0.0000     1.4420 c          1 HTA       0.662100
      5 C5           1.5060    -1.2490     2.1640 c3         1 HTA      -0.056400
      6 C6           0.7480    -0.8350     3.4250 c3         1 HTA      -0.078700
      7 C7           0.1260    -2.0730     4.0750 c3         1 HTA      -0.088100
      8 C8           1.7160    -0.1750     4.4080 c3         1 HTA      -0.088100
      9 C9           5.6570     1.0560     1.9580 c3         1 HTA       0.045700
     10 C10          6.2740     0.3190     3.1190 c          1 HTA       0.649100
     11 C11          6.1060     2.5180     1.9850 c3         1 HTA      -0.040100
     12 C12          5.4900     3.2550     0.8250 ca         1 HTA      -0.122300
     13 C13          4.2610     3.8690     0.9720 ca         1 HTA      -0.085500
     14 C14          6.1570     3.3210    -0.3840 ca         1 HTA      -0.085500
     15 C15          3.6940     4.5460    -0.0900 ca         1 HTA      -0.187000
     16 C16          5.5920     3.9900    -1.4510 ca         1 HTA      -0.187000
     17 C17          4.3590     4.6070    -1.3060 ca         1 HTA       0.119100
     18 C18          6.2970    -0.3370     5.4640 c3         1 HTA       0.101300
     19 C19          4.7160     5.1580    -3.4460 c3         1 HTA       0.104700
     20 N1          -0.6740     0.0000    -1.1670 ns         1 HTA      -0.472400
     21 N2           4.1970     0.9900     2.0580 ns         1 HTA      -0.586900
     22 O1          -2.0890     0.0010    -1.1680 oh         1 HTA      -0.363100
     23 O2          -0.6060    -0.0000     1.0500 o          1 HTA      -0.580100
     24 O3           4.1300    -0.8920     0.8890 o          1 HTA      -0.597100
     25 O4           7.3030    -0.3020     2.9650 o          1 HTA      -0.593100
     26 O5           3.8030     5.2720    -2.3530 os         1 HTA      -0.297900
     27 H21          1.8680     0.8840    -0.5110 hc         1 HTA       0.075200
     28 H22          1.8680    -0.8840    -0.5110 hc         1 HTA       0.075200
     29 H3           1.6560     0.8850     1.9530 hc         1 HTA       0.068700
     30 H51          2.3460    -1.8770     2.4370 hc         1 HTA       0.057200
     31 H52          0.8430    -1.7990     1.5070 hc         1 HTA       0.057200
     32 H6          -0.0350    -0.1340     3.1620 hc         1 HTA       0.083700
     33 H71         -0.4490    -1.7750     4.9430 hc         1 HTA       0.031033
     34 H72          0.9110    -2.7550     4.3780 hc         1 HTA       0.031033
     35 H73         -0.5250    -2.5660     3.3630 hc         1 HTA       0.031033
     36 H81          2.6300    -0.7540     4.4600 hc         1 HTA       0.031033
     37 H82          1.2600    -0.1320     5.3900 hc         1 HTA       0.031033
     38 H83          1.9440     0.8290     4.0720 hc         1 HTA       0.031033
     39 H9           5.9760     0.5980     1.0300 h1         1 HTA       0.119700
     40 H111         7.1860     2.5660     1.9100 hc         1 HTA       0.061700
     41 H112         5.7880     2.9760     2.9140 hc         1 HTA       0.061700
     42 H13          3.7420     3.8210     1.9220 ha         1 HTA       0.131500
     43 H14          7.1210     2.8390    -0.4970 ha         1 HTA       0.131500
     44 H15          2.7300     5.0270     0.0250 ha         1 HTA       0.145000
     45 H16          6.1150     4.0390    -2.3980 ha         1 HTA       0.145000
     46 H181         5.6740    -0.2150     6.3420 h1         1 HTA       0.042700
     47 H182         6.3970    -1.3920     5.2370 h1         1 HTA       0.042700
     48 H183         7.2760     0.0850     5.6550 h1         1 HTA       0.042700
     49 H191         4.3130     5.6750    -4.3090 h1         1 HTA       0.045033
     50 H192         5.6660     5.6010    -3.1710 h1         1 HTA       0.045033
     51 H193         4.8610     4.1120    -3.6880 h1         1 HTA       0.045033
     52 HN1         -0.1730     0.0070    -2.0330 hn         1 HTA       0.320500
     53 HN2          3.7010     1.6770     2.5900 hn         1 HTA       0.312500
     54 HN3          4.8480     0.8900     4.4620 hn         1 HTA       0.309500
     55 HO1         -2.4030    -0.0630    -2.0550 ho         1 HTA       0.399000
     56 N3           5.6800     0.3510     4.3280 ns         1 HTA      -0.584900
@<TRIPOS>BOND
     1     1     2 1
     2     1    20 1
     3     1    23 2
     4     2     3 1
     5     2    27 1
     6     2    28 1
     7     3     4 1
     8     3     5 1
     9     3    29 1
    10     4    21 1
    11     4    24 2
    12     5     6 1
    13     5    30 1
    14     5    31 1
    15     6     7 1
    16     6     8 1
    17     6    32 1
    18     7    33 1
    19     7    34 1
    20     7    35 1
    21     8    36 1
    22     8    37 1
    23     8    38 1
    24     9    10 1
    25     9    11 1
    26     9    21 1
    27     9    39 1
    28    10    56 1
    29    10    25 2
    30    11    12 1
    31    11    40 1
    32    11    41 1
    33    12    13 ar
    34    12    14 ar
    35    13    15 ar
    36    13    42 1
    37    14    16 ar
    38    14    43 1
    39    15    17 ar
    40    15    44 1
    41    16    17 ar
    42    16    45 1
    43    17    26 1
    44    18    56 1
    45    18    46 1
    46    18    47 1
    47    18    48 1
    48    19    26 1
    49    19    49 1
    50    19    50 1
    51    19    51 1
    52    20    22 1
    53    20    52 1
    54    21    53 1
    55    56    54 1
    56    22    55 1
@<TRIPOS>SUBSTRUCTURE
     1 HTA         1 TEMP              0 ****  ****    0 ROOT
