@<TRIPOS>MOLECULE
HTB
   69    73     1     0     0
SMALL
bcc


@<TRIPOS>ATOM
      1 CAS        -0.1220    0.0450   -0.0290 c3        1 HTB     -0.134700
      2 CAO         1.3840    0.1040   -0.1380 c3        1 HTB     -0.080400
      3 CAP         2.0020    0.1990    1.2370 c3        1 HTB     -0.080400
      4 CAT         1.5920    1.4850    1.9210 c3        1 HTB     -0.024100
      5 CBB         0.1470    1.8160    1.7930 ca        1 HTB     -0.168600
      6 CBA        -0.6930    1.1420    0.8340 ca        1 HTB      0.446600
      7 NAV        -1.9850    1.4110    0.6800 nb        1 HTB     -0.670000
      8 CBE        -2.5640    2.3800    1.4660 ca        1 HTB      0.408600
      9 CAF        -3.9620    2.6590    1.3010 ca        1 HTB     -0.158300
     10 CAB        -4.5690    3.6270    2.0570 ca        1 HTB     -0.125000
     11 CAD        -3.8280    4.3680    3.0060 ca        1 HTB     -0.123000
     12 CAH        -2.4890    4.1210    3.1890 ca        1 HTB     -0.127000
     13 CBG        -1.8230    3.1190    2.4350 ca        1 HTB     -0.168300
     14 CBC        -0.4230    2.8080    2.5930 ca        1 HTB      0.117600
     15 NAX         0.3620    3.4550    3.5920 nh        1 HTB     -0.714600
     16 CAR         1.0860    4.6230    3.1220 c3        1 HTB      0.170800
     17 CAN         1.9360    5.2620    4.2200 c3        1 HTB     -0.085400
     18 CAL         2.7160    6.4290    3.6520 c3        1 HTB     -0.079400
     19 CAJ         3.5790    7.0700    4.7180 c3        1 HTB     -0.079400
     20 CAK         4.3700    8.2290    4.1470 c3        1 HTB     -0.078400
     21 CAM         5.2410    8.8600    5.2170 c3        1 HTB     -0.109400
     22 CAQ         6.0260   10.0160    4.6090 c3        1 HTB      0.101800
     23 NAW         6.9120   10.6900    5.6030 n4        1 HTB     -0.768000
     24 CAU         7.6910   11.8190    4.9900 c3        1 HTB      0.206000
     25 CAZ         8.5070   12.5040    6.0030 cc        1 HTB     -0.128100
     26 OAY         7.7630   13.0610    7.0750 os        1 HTB     -0.227200
     27 CBF         8.7060   13.7200    7.8700 ca        1 HTB      0.089100
     28 CAG         8.4510   14.4220    9.0440 ca        1 HTB     -0.129000
     29 CAC         9.5570   15.0010    9.6640 ca        1 HTB     -0.069000
     30 CAA        10.8520   14.8780    9.1320 ca        1 HTB     -0.138000
     31 CAE        11.0980   14.1710    7.9580 ca        1 HTB     -0.052000
     32 CBD        10.0140   13.5780    7.3100 ca        1 HTB     -0.142800
     33 CAI         9.8490   12.7840    6.1090 cd        1 HTB     -0.033200
     34 H1         -0.4270   -0.9380    0.4260 hc        1 HTB      0.069700
     35 H2         -0.5710    0.0880   -1.0580 hc        1 HTB      0.069700
     36 H3          1.6910    0.9890   -0.7540 hc        1 HTB      0.046700
     37 H4          1.7520   -0.8160   -0.6620 hc        1 HTB      0.046700
     38 H5          3.1200    0.1620    1.1610 hc        1 HTB      0.045700
     39 H6          1.6790   -0.6800    1.8550 hc        1 HTB      0.045700
     40 H7          1.8710    1.4170    3.0080 hc        1 HTB      0.053700
     41 H8          2.1840    2.3360    1.4810 hc        1 HTB      0.053700
     42 H9         -4.5340    2.0800    0.5580 ha        1 HTB      0.155000
     43 H10        -5.6420    3.8400    1.9330 ha        1 HTB      0.140000
     44 H11        -4.3380    5.1450    3.5950 ha        1 HTB      0.134000
     45 H12        -1.9350    4.7190    3.9270 ha        1 HTB      0.119000
     46 H13        -0.2000    3.6810    4.3930 hn        1 HTB      0.375800
     47 H14         1.7590    4.2920    2.2810 h1        1 HTB      0.038700
     48 H15         0.3900    5.4110    2.7050 h1        1 HTB      0.038700
     49 H16         2.6440    4.5040    4.6460 hc        1 HTB      0.050700
     50 H17         1.2810    5.6170    5.0580 hc        1 HTB      0.050700
     51 H18         3.3620    6.0750    2.8060 hc        1 HTB      0.047200
     52 H19         2.0060    7.1910    3.2320 hc        1 HTB      0.047200
     53 H20         4.2820    6.3050    5.1430 hc        1 HTB      0.049700
     54 H21         2.9320    7.4330    5.5600 hc        1 HTB      0.049700
     55 H22         5.0120    7.8650    3.3010 hc        1 HTB      0.055700
     56 H23         3.6660    8.9960    3.7290 hc        1 HTB      0.055700
     57 H24         4.5930    9.2250    6.0570 hc        1 HTB      0.068200
     58 H25         5.9390    8.0860    5.6330 hc        1 HTB      0.068200
     59 H26         5.3160   10.7900    4.1970 hx        1 HTB      0.105200
     60 H27         6.6750    9.6400    3.7660 hx        1 HTB      0.105200
     61 H28         8.3490   11.4020    4.1750 hx        1 HTB      0.117700
     62 H29         7.4360   14.5200    9.4510 ha        1 HTB      0.164000
     63 H30         9.4120   15.5740   10.5950 ha        1 HTB      0.158000
     64 H31        11.6930   15.3560    9.6610 ha        1 HTB      0.158000
     65 H32        12.1160   14.0840    7.5500 ha        1 HTB      0.157000
     66 H33        10.6500   12.4890    5.4310 ha        1 HTB      0.181000
     67 H34         7.5630   10.0050    6.0040 hn        1 HTB      0.456800
     68 H35         6.9430   12.5370    4.5370 hx        1 HTB      0.117700
     69 HAW2        6.3450   11.0660    6.3750 hn        1 HTB      0.456800
@<TRIPOS>BOND
     1    1    2 1   
     2    1    6 1   
     3    1   34 1   
     4    1   35 1   
     5    2    3 1   
     6    2   36 1   
     7    2   37 1   
     8    3    4 1   
     9    3   38 1   
    10    3   39 1   
    11    4    5 1   
    12    4   40 1   
    13    4   41 1   
    14    5    6 ar  
    15    5   14 ar  
    16    6    7 ar  
    17    7    8 ar  
    18    8    9 ar  
    19    8   13 ar  
    20    9   10 ar  
    21    9   42 1   
    22   10   11 ar  
    23   10   43 1   
    24   11   12 ar  
    25   11   44 1   
    26   12   13 ar  
    27   12   45 1   
    28   13   14 ar  
    29   14   15 1   
    30   15   16 1   
    31   15   46 1   
    32   16   17 1   
    33   16   47 1   
    34   16   48 1   
    35   17   18 1   
    36   17   49 1   
    37   17   50 1   
    38   18   19 1   
    39   18   51 1   
    40   18   52 1   
    41   19   20 1   
    42   19   53 1   
    43   19   54 1   
    44   20   21 1   
    45   20   55 1   
    46   20   56 1   
    47   21   22 1   
    48   21   57 1   
    49   21   58 1   
    50   22   23 1   
    51   22   59 1   
    52   22   60 1   
    53   23   24 1   
    54   23   67 1   
    55   23   69 1   
    56   24   25 1   
    57   24   61 1   
    58   24   68 1   
    59   25   26 1   
    60   25   33 2   
    61   26   27 1   
    62   27   28 ar  
    63   27   32 ar  
    64   28   29 ar  
    65   28   62 1   
    66   29   30 ar  
    67   29   63 1   
    68   30   31 ar  
    69   30   64 1   
    70   31   32 ar  
    71   31   65 1   
    72   32   33 1   
    73   33   66 1   
@<TRIPOS>SUBSTRUCTURE
     1 HTB         1 TEMP              0 ****  ****    0 ROOT
