@<TRIPOS>MOLECULE
molecule
   29    30     1     0     0
SMALL
bcc


@<TRIPOS>ATOM
      1 N1           0.0000     0.0000     0.0000 nu         1 HTC      -0.712500
      2 S13          1.7590     0.0000     0.0000 sy         1 HTC       1.361200
      3 O17          2.2150     0.0000     1.3450 o          1 HTC      -0.636300
      4 O16          2.1890     1.1930    -0.6810 o          1 HTC      -0.636300
      5 C15          2.4940    -1.4350    -0.8670 cc         1 HTC      -0.258500
      6 C19          3.3700    -2.3540    -0.2860 cc         1 HTC      -0.099000
      7 C22          3.7280    -3.3090    -1.2480 cd         1 HTC      -0.628100
      8 S20          3.0770    -2.9990    -2.4480 ss         1 HTC       0.789200
      9 C18          2.2900    -1.8070    -2.2090 cd         1 HTC      -0.409700
     10 C21          1.4040    -1.0920    -3.2260 c          1 HTC       0.930200
     11 O24          1.3150    -1.5440    -4.3920 o          1 HTC      -0.829300
     12 O23          0.7150     0.0190    -2.8910 o          1 HTC      -0.829300
     13 C2          -0.7160    -0.8570     0.8730 ca         1 HTC       0.104600
     14 C4          -1.2790    -0.3160     2.0770 ca         1 HTC       0.073100
     15 C6          -1.9970    -1.1380     2.9760 ca         1 HTC      -0.160000
     16 C7          -2.1720    -2.5360     2.6790 ca         1 HTC      -0.095600
     17 C5          -1.6160    -3.0990     1.4640 ca         1 HTC      -0.117000
     18 C3          -0.8820    -2.2580     0.5530 ca         1 HTC      -0.149000
     19 O1          -1.1180     1.0070     2.3580 oh         1 HTC      -0.512100
     20 C           -2.9440    -3.4120     3.6570 c          1 HTC       0.890200
     21 O           -3.1210    -4.7050     3.3990 o          1 HTC      -0.846800
     22 O25         -3.4100    -2.9260     4.7000 o          1 HTC      -0.846800
     23 HN1         -0.4980     0.6120    -0.6160 hn         1 HTC       0.468800
     24 H19          3.7180    -2.3320     0.7400 ha         1 HTC       0.152000
     25 H22          4.3960    -4.1470    -1.0900 h4         1 HTC       0.172000
     26 H6          -2.4150    -0.7170     3.8820 ha         1 HTC       0.145000
     27 H5          -1.7500    -4.1510     1.2420 ha         1 HTC       0.149000
     28 H3          -0.4630    -2.6680    -0.3570 ha         1 HTC       0.139000
     29 HO1         -1.9640     1.4140     2.4520 ho         1 HTC       0.394000
@<TRIPOS>BOND
     1     1     2 1
     2     1    13 1
     3     1    23 1
     4     2     3 2
     5     2     4 2
     6     2     5 1
     7     5     6 1
     8     5     9 2
     9     6     7 2
    10     6    24 1
    11     7     8 1
    12     7    25 1
    13     8     9 1
    14     9    10 1
    15    10    11 1
    16    10    12 1
    17    13    14 ar
    18    13    18 ar
    19    14    15 ar
    20    14    19 1
    21    15    16 ar
    22    15    26 1
    23    16    17 ar
    24    16    20 1
    25    17    18 ar
    26    17    27 1
    27    18    28 1
    28    19    29 1
    29    20    21 1
    30    20    22 1
@<TRIPOS>SUBSTRUCTURE
     1 HTC         1 TEMP              0 ****  ****    0 ROOT
