@<TRIPOS>MOLECULE
HTF
   37    37     1     0     0
SMALL
bcc


@<TRIPOS>ATOM
      1 C8           0.0000     0.0000     0.0000 c3         1 HTF       0.005900
      2 C7           1.5300     0.0000     0.0000 c3         1 HTF      -0.028400
      3 C6           2.0400     0.0000     1.4420 c3         1 HTF      -0.030400
      4 C5           3.5700     0.0010     1.4410 c3         1 HTF      -0.027400
      5 C4           4.0800    -0.0000     2.8840 c3         1 HTF      -0.031400
      6 C3           5.6100     0.0010     2.8840 c3         1 HTF      -0.016400
      7 C2           6.1210     0.0010     4.3270 c3         1 HTF      -0.094400
      8 C1           7.6280     0.0010     4.3260 c          1 HTF       0.578100
      9 O1           8.2340     0.0020     3.2760 o          1 HTF      -0.626100
     10 N            8.3020     0.0010     5.4930 ns         1 HTF      -0.192900
     11 CA           9.7660     0.0020     5.4930 c3         1 HTF      -0.090300
     12 C           10.2960    -1.4180     5.4440 c          1 HTF       0.778600
     13 O            9.8500    -2.3200     4.7750 o          1 HTF      -0.568500
     14 OD          11.3480    -1.4990     6.2810 os         1 HTF      -0.400900
     15 CG          11.1140    -0.6010     7.4080 c3         1 HTF       0.221400
     16 CB          10.3050     0.5760     6.8220 c3         1 HTF      -0.074400
     17 H81         -0.3610     0.8850     0.5110 hc         1 HTF       0.000033
     18 H82         -0.3610    -0.8840     0.5110 hc         1 HTF       0.000033
     19 H83         -0.3610    -0.0000    -1.0210 hc         1 HTF       0.000033
     20 H72          1.8910    -0.8850    -0.5110 hc         1 HTF       0.013200
     21 H73          1.8910     0.8850    -0.5110 hc         1 HTF       0.013200
     22 H62          1.6790    -0.8850     1.9520 hc         1 HTF       0.013200
     23 H63          1.6780     0.8840     1.9530 hc         1 HTF       0.013200
     24 H52          3.9310     0.8860     0.9310 hc         1 HTF       0.017700
     25 H53          3.9310    -0.8830     0.9300 hc         1 HTF       0.017700
     26 H42          3.7200    -0.8850     3.3950 hc         1 HTF       0.011200
     27 H43          3.7190     0.8840     3.3960 hc         1 HTF       0.011200
     28 H32          5.9720    -0.8840     2.3730 hc         1 HTF       0.031700
     29 H33          5.9710     0.8850     2.3730 hc         1 HTF       0.031700
     30 H22          5.7600    -0.8830     4.8380 hc         1 HTF       0.026700
     31 H23          5.7600     0.8860     4.8370 hc         1 HTF       0.026700
     32 HN           7.8020     0.0170     6.3600 hn         1 HTF       0.175500
     33 HA          10.1490     0.5740     4.6560 h1         1 HTF       0.085700
     34 HG2         12.0560    -0.2470     7.8070 h1         1 HTF       0.019200
     35 HG3         10.5390    -1.1060     8.1750 h1         1 HTF       0.019200
     36 HB2         10.9510     1.4260     6.6360 hc         1 HTF       0.035200
     37 HB3          9.4880     0.8430     7.4810 hc         1 HTF       0.035200
@<TRIPOS>BOND
     1     1     2 1   
     2     1    17 1   
     3     1    18 1   
     4     1    19 1   
     5     2     3 1   
     6     2    20 1   
     7     2    21 1   
     8     3     4 1   
     9     3    22 1   
    10     3    23 1   
    11     4     5 1   
    12     4    24 1   
    13     4    25 1   
    14     5     6 1   
    15     5    26 1   
    16     5    27 1   
    17     6     7 1   
    18     6    28 1   
    19     6    29 1   
    20     7     8 1   
    21     7    30 1   
    22     7    31 1   
    23     8     9 2   
    24     8    10 1   
    25    10    11 1   
    26    10    32 1   
    27    11    12 1   
    28    11    16 1   
    29    11    33 1   
    30    12    13 2   
    31    12    14 1   
    32    14    15 1   
    33    15    16 1   
    34    15    34 1   
    35    15    35 1   
    36    16    36 1   
    37    16    37 1   
@<TRIPOS>SUBSTRUCTURE
     1 HTF         1 TEMP              0 ****  ****    0 ROOT
