@<TRIPOS>MOLECULE
HTG
   45    45     1     0     0
SMALL
bcc


@<TRIPOS>ATOM
      1 C1         -0.1180   -0.0640    0.1630 c3        1 HTG      0.184200
      2 S1         -0.7710    0.0390   -1.4930 ss        1 HTG     -0.295200
      3 C2          1.4110   -0.1010    0.0700 c3        1 HTG      0.092100
      4 O2          1.8760   -1.3550   -0.4030 oh        1 HTG     -0.604800
      5 C3          2.0270    0.0630    1.4700 c3        1 HTG      0.111100
      6 O3          3.4260    0.2700    1.3820 oh        1 HTG     -0.606800
      7 C4          1.4450    1.3060    2.1640 c3        1 HTG      0.121100
      8 O4          1.8900    1.3780    3.5060 oh        1 HTG     -0.595800
      9 C5         -0.0880    1.1960    2.1880 c3        1 HTG      0.131100
     10 O5         -0.5720    1.0960    0.8440 os        1 HTG     -0.394600
     11 C6         -0.7200    2.4590    2.7760 c3        1 HTG      0.136400
     12 O6         -1.9790    2.0790    3.3060 oh        1 HTG     -0.599800
     13 C1'        -2.4900   -0.3210   -1.2440 c3        1 HTG     -0.001300
     14 C2'        -3.1740   -0.1710   -2.5780 c3        1 HTG     -0.072400
     15 C3'        -4.6500   -0.4940   -2.4660 c3        1 HTG     -0.077400
     16 C4'        -5.3450   -0.3400   -3.8020 c3        1 HTG     -0.079400
     17 C5'        -6.8190   -0.6630   -3.6930 c3        1 HTG     -0.079400
     18 C6'        -7.5160   -0.5100   -5.0290 c3        1 HTG     -0.080400
     19 C7'        -8.9840   -0.8310   -4.9260 c3        1 HTG     -0.093100
     20 H1         -0.4990   -0.9830    0.6820 h2        1 HTG      0.071700
     21 H2          1.7760    0.7230   -0.6060 h1        1 HTG      0.074700
     22 HO2         1.4510   -1.5080   -1.2580 ho        1 HTG      0.424000
     23 H3          1.8210   -0.8580    2.0840 h1        1 HTG      0.064700
     24 HO3         3.7860   -0.4810    0.8900 ho        1 HTG      0.427000
     25 H4          1.7620    2.2310    1.6070 h1        1 HTG      0.062700
     26 HO4         2.8560    1.3260    3.4760 ho        1 HTG      0.424000
     27 H5         -0.4060    0.2930    2.7790 h1        1 HTG      0.076700
     28 H61        -0.8470    3.2370    1.9780 h1        1 HTG      0.048200
     29 H62        -0.0600    2.8480    3.5980 h1        1 HTG      0.048200
     30 HO6        -2.4180    2.8930    3.5770 ho        1 HTG      0.403000
     31 H1'1       -2.6110   -1.3590   -0.8500 h1        1 HTG      0.071700
     32 H1'2       -2.9180    0.3860   -0.4920 h1        1 HTG      0.071700
     33 H2'1       -3.0480    0.8800   -2.9540 hc        1 HTG      0.055200
     34 H2'2       -2.6980   -0.8540   -3.3310 hc        1 HTG      0.055200
     35 H3'1       -4.7790   -1.5440   -2.0930 hc        1 HTG      0.042700
     36 H3'2       -5.1270    0.1870   -1.7120 hc        1 HTG      0.042700
     37 H4'1       -5.2160    0.7110   -4.1740 hc        1 HTG      0.041200
     38 H4'2       -4.8650   -1.0190   -4.5560 hc        1 HTG      0.041200
     39 H5'1       -6.9480   -1.7130   -3.3210 hc        1 HTG      0.040200
     40 H5'2       -7.2990    0.0160   -2.9400 hc        1 HTG      0.040200
     41 H6'1       -7.0340   -1.1880   -5.7820 hc        1 HTG      0.038700
     42 H6'2       -7.3850    0.5410   -5.4010 hc        1 HTG      0.038700
     43 H7'1       -9.1350   -1.8830   -4.5810 hc        1 HTG      0.032700
     44 H7'2       -9.4780   -0.7120   -5.9210 hc        1 HTG      0.032700
     45 H7'3       -9.4870   -0.1490   -4.1990 hc        1 HTG      0.032700
@<TRIPOS>BOND
     1    1    2 1   
     2    1    3 1   
     3    1   10 1   
     4    1   20 1   
     5    2   13 1   
     6    3    4 1   
     7    3    5 1   
     8    3   21 1   
     9    4   22 1   
    10    5    6 1   
    11    5    7 1   
    12    5   23 1   
    13    6   24 1   
    14    7    8 1   
    15    7    9 1   
    16    7   25 1   
    17    8   26 1   
    18    9   10 1   
    19    9   11 1   
    20    9   27 1   
    21   11   12 1   
    22   11   28 1   
    23   11   29 1   
    24   12   30 1   
    25   13   14 1   
    26   13   31 1   
    27   13   32 1   
    28   14   15 1   
    29   14   33 1   
    30   14   34 1   
    31   15   16 1   
    32   15   35 1   
    33   15   36 1   
    34   16   17 1   
    35   16   37 1   
    36   16   38 1   
    37   17   18 1   
    38   17   39 1   
    39   17   40 1   
    40   18   19 1   
    41   18   41 1   
    42   18   42 1   
    43   19   43 1   
    44   19   44 1   
    45   19   45 1   
@<TRIPOS>SUBSTRUCTURE
     1 HTG         1 TEMP              0 ****  ****    0 ROOT
