@<TRIPOS>MOLECULE
molecule
   45    45     1     0     0
SMALL
bcc


@<TRIPOS>ATOM
      1 C1           0.0000     0.0000     0.0000 c3         1 HTG       0.208200
      2 S1          -0.6040    -0.0440    -1.7100 ss         1 HTG      -0.307200
      3 C2           1.5300     0.0000     0.0000 c3         1 HTG       0.121100
      4 O2           2.0080    -1.1680    -0.6700 oh         1 HTG      -0.591800
      5 C3           2.0300     0.0000     1.4490 c3         1 HTG       0.121100
      6 O3           3.4510     0.1500     1.4700 oh         1 HTG      -0.603800
      7 C4           1.3790     1.1740     2.1900 c3         1 HTG       0.108100
      8 O4           1.7130     1.1090     3.5790 oh         1 HTG      -0.602800
      9 C5          -0.1400     1.0870     2.0250 c3         1 HTG       0.127100
     10 O5          -0.4820     1.1790     0.6440 os         1 HTG      -0.374600
     11 C6          -0.8000     2.2350     2.7900 c3         1 HTG       0.149400
     12 O6          -2.2200     2.0870     2.7400 oh         1 HTG      -0.604800
     13 C1'         -2.3860    -0.1950    -1.4120 c3         1 HTG       0.015700
     14 C2'         -3.1240    -0.2520    -2.7500 c3         1 HTG      -0.070400
     15 C3'         -4.6280    -0.3800    -2.4980 c3         1 HTG      -0.079400
     16 C4'         -5.3660    -0.4360    -3.8370 c3         1 HTG      -0.081400
     17 C5'         -6.8700    -0.5640    -3.5850 c3         1 HTG      -0.081400
     18 C6'         -7.6080    -0.6210    -4.9240 c3         1 HTG      -0.084400
     19 C7'         -9.1120    -0.7490    -4.6720 c3         1 HTG      -0.092100
     20 H1          -0.3580    -0.8710     0.5350 h2         1 HTG       0.068700
     21 H2           1.8910     0.8870    -0.5060 h1         1 HTG       0.067700
     22 HO2          2.4720    -0.9160    -1.4510 ho         1 HTG       0.416000
     23 H3           1.7510    -0.9310     1.9280 h1         1 HTG       0.062700
     24 HO3          3.8420    -0.6150     1.8600 ho         1 HTG       0.415000
     25 H4           1.7340     2.1070     1.7700 h1         1 HTG       0.059700
     26 HO4          2.4040     1.7230     3.7650 ho         1 HTG       0.414000
     27 H5          -0.4890     0.1400     2.4180 h1         1 HTG       0.064700
     28 H61         -0.4710     2.2180     3.8220 h1         1 HTG       0.037200
     29 H62         -0.5200     3.1790     2.3370 h1         1 HTG       0.037200
     30 HO6         -2.6250     2.7420     3.2840 ho         1 HTG       0.404000
     31 H1'1        -2.7310     0.6610    -0.8450 h1         1 HTG       0.068200
     32 H1'2        -2.5820    -1.1010    -0.8520 h1         1 HTG       0.068200
     33 H2'1        -2.9280     0.6550    -3.3100 hc         1 HTG       0.052700
     34 H2'2        -2.7790    -1.1080    -3.3170 hc         1 HTG       0.052700
     35 H3'1        -4.8240    -1.2870    -1.9390 hc         1 HTG       0.044200
     36 H3'2        -4.9730     0.4760    -1.9310 hc         1 HTG       0.044200
     37 H4'1        -5.1700     0.4710    -4.3960 hc         1 HTG       0.042700
     38 H4'2        -5.0210    -1.2920    -4.4050 hc         1 HTG       0.042700
     39 H5'1        -7.0670    -1.4700    -3.0250 hc         1 HTG       0.041700
     40 H5'2        -7.2150     0.2930    -3.0180 hc         1 HTG       0.041700
     41 H6'1        -7.2630    -1.4770    -5.4900 hc         1 HTG       0.040200
     42 H6'2        -7.4120     0.2850    -5.4840 hc         1 HTG       0.040200
     43 H7'1        -9.6350    -0.7890    -5.6190 hc         1 HTG       0.032367
     44 H7'2        -9.3090    -1.6550    -4.1120 hc         1 HTG       0.032367
     45 H7'3        -9.4570     0.1080    -4.1050 hc         1 HTG       0.032367
@<TRIPOS>BOND
     1     1     2 1
     2     1     3 1
     3     1    10 1
     4     1    20 1
     5     2    13 1
     6     3     4 1
     7     3     5 1
     8     3    21 1
     9     4    22 1
    10     5     6 1
    11     5     7 1
    12     5    23 1
    13     6    24 1
    14     7     8 1
    15     7     9 1
    16     7    25 1
    17     8    26 1
    18     9    10 1
    19     9    11 1
    20     9    27 1
    21    11    12 1
    22    11    28 1
    23    11    29 1
    24    12    30 1
    25    13    14 1
    26    13    31 1
    27    13    32 1
    28    14    15 1
    29    14    33 1
    30    14    34 1
    31    15    16 1
    32    15    35 1
    33    15    36 1
    34    16    17 1
    35    16    37 1
    36    16    38 1
    37    17    18 1
    38    17    39 1
    39    17    40 1
    40    18    19 1
    41    18    41 1
    42    18    42 1
    43    19    43 1
    44    19    44 1
    45    19    45 1
@<TRIPOS>SUBSTRUCTURE
     1 HTG         1 TEMP              0 ****  ****    0 ROOT
