@<TRIPOS>MOLECULE
HTH
   26    25     1     0     0
SMALL
bcc


@<TRIPOS>ATOM
      1 C1          0.0100   -0.0860    0.0170 c3        1 HTH      0.095400
      2 O1         -0.3280   -1.2370    0.7780 oh        1 HTH     -0.618800
      3 C2          1.5390   -0.0130    0.0100 c3        1 HTH      0.147100
      4 O2          2.0460    0.1160    1.3310 oh        1 HTH     -0.607800
      5 C3          2.0130    1.2320   -0.7640 c3        1 HTH      0.143100
      6 O3          1.3770    1.1630   -2.0360 oh        1 HTH     -0.610800
      7 C4          3.5320    1.2410   -0.8820 c3        1 HTH     -0.118400
      8 C5          4.0590    2.5960   -1.2990 c3        1 HTH     -0.080400
      9 C6          5.5690    2.5860   -1.4070 c3        1 HTH     -0.079400
     10 C7          6.1020    3.9330   -1.8230 c3        1 HTH     -0.093100
     11 H1         -0.4220    0.8300    0.4980 h1        1 HTH      0.045200
     12 H1A        -0.3700   -0.1780   -1.0340 h1        1 HTH      0.045200
     13 HO1        -1.2890   -1.3100    0.7580 ho        1 HTH      0.408000
     14 H2          1.9590   -0.9430   -0.4630 h1        1 HTH      0.056700
     15 HO2         1.6310   -0.5850    1.8500 ho        1 HTH      0.424000
     16 H3          1.6600    2.1580   -0.2290 h1        1 HTH      0.049700
     17 HO3         1.8280    1.7940   -2.6090 ho        1 HTH      0.408000
     18 H4          3.8490    0.4620   -1.6230 hc        1 HTH      0.064200
     19 H4A         3.9630    0.9600    0.1160 hc        1 HTH      0.064200
     20 H5          3.7420    3.3710   -0.5510 hc        1 HTH      0.037200
     21 H5A         3.6180    2.8930   -2.2880 hc        1 HTH      0.037200
     22 H6          5.8850    1.8090   -2.1520 hc        1 HTH      0.041700
     23 H6A         6.0100    2.2940   -0.4180 hc        1 HTH      0.041700
     24 H7          7.2160    3.9040   -1.8930 hc        1 HTH      0.033367
     25 H7A         5.6930    4.2300   -2.8190 hc        1 HTH      0.033367
     26 H7B         5.8170    4.7170   -1.0790 hc        1 HTH      0.033367
@<TRIPOS>BOND
     1    1    2 1   
     2    1    3 1   
     3    1   11 1   
     4    1   12 1   
     5    2   13 1   
     6    3    4 1   
     7    3    5 1   
     8    3   14 1   
     9    4   15 1   
    10    5    6 1   
    11    5    7 1   
    12    5   16 1   
    13    6   17 1   
    14    7    8 1   
    15    7   18 1   
    16    7   19 1   
    17    8    9 1   
    18    8   20 1   
    19    8   21 1   
    20    9   10 1   
    21    9   22 1   
    22    9   23 1   
    23   10   24 1   
    24   10   25 1   
    25   10   26 1   
@<TRIPOS>SUBSTRUCTURE
     1 HTH         1 TEMP              0 ****  ****    0 ROOT
