@<TRIPOS>MOLECULE
HTJ
   38    41     1     0     0
SMALL
bcc


@<TRIPOS>ATOM
      1 C1          0.2290    0.2760   -0.1550 ca        1 HTJ      0.380200
      2 C2          1.6310    0.2510   -0.0560 ca        1 HTJ     -0.222800
      3 C3          2.2090   -0.0300    1.1880 ca        1 HTJ     -0.073300
      4 C4          1.3650   -0.2590    2.2800 ca        1 HTJ     -0.222800
      5 C5         -0.0260   -0.2140    2.0760 ca        1 HTJ      0.380200
      6 N6         -0.5980    0.0430    0.8830 nb        1 HTJ     -0.674000
      7 C7          3.7000   -0.1160    1.3410 c3        1 HTJ      0.085600
      8 N8          4.4310    1.1370    1.3140 na        1 HTJ     -0.012800
      9 C9          4.4130    2.0110    2.4640 ca        1 HTJ      0.392800
     10 C10         4.6200    3.3540    1.9510 ca        1 HTJ     -0.286200
     11 C11         4.6430    3.1830    0.5010 cc        1 HTJ      0.433800
     12 N12         4.4680    1.9010    0.1750 nd        1 HTJ     -0.579100
     13 N13         4.3220    1.6910    3.7740 nb        1 HTJ     -0.694000
     14 C14         4.4470    2.7520    4.6220 cp        1 HTJ      0.444800
     15 C15         4.6560    4.0870    4.2010 ca        1 HTJ     -0.236300
     16 C16         4.7540    4.4100    2.8410 ca        1 HTJ     -0.024600
     17 C18         5.0010    5.8460    2.3840 c         1 HTJ      0.911200
     18 O19         5.0450    6.0650    1.1430 o         1 HTJ     -0.813800
     19 O20         5.1490    6.7200    3.2800 o         1 HTJ     -0.813800
     20 C21         4.3570    2.4850    6.0710 cp        1 HTJ     -0.117500
     21 C22         3.4230    1.5740    6.5830 ca        1 HTJ     -0.108000
     22 C23         3.3450    1.3480    7.9560 ca        1 HTJ     -0.143000
     23 C24         4.1960    2.0230    8.8290 ca        1 HTJ     -0.140000
     24 C25         5.1310    2.9270    8.3250 ca        1 HTJ     -0.143000
     25 C26         5.2140    3.1590    6.9530 ca        1 HTJ     -0.108000
     26 H1         -0.2620    0.5000   -1.1180 h4        1 HTJ      0.013600
     27 H2          2.2600    0.4610   -0.9320 ha        1 HTJ      0.154000
     28 H4          1.7770   -0.4550    3.2790 ha        1 HTJ      0.154000
     29 H5         -0.7220   -0.3880    2.9150 h4        1 HTJ      0.013600
     30 H7          4.1030   -0.7590    0.5040 h1        1 HTJ      0.071200
     31 H7A         3.9500   -0.6100    2.3240 h1        1 HTJ      0.071200
     32 H11         4.7900    4.0050   -0.2100 h4        1 HTJ      0.088800
     33 H15         4.7390    4.9050    4.9350 ha        1 HTJ      0.169000
     34 H22         2.7490    1.0370    5.8990 ha        1 HTJ      0.145000
     35 H23         2.6070    0.6350    8.3500 ha        1 HTJ      0.121000
     36 H24         4.1320    1.8440    9.9120 ha        1 HTJ      0.117000
     37 H25         5.8050    3.4620    9.0100 ha        1 HTJ      0.121000
     38 H26         5.9530    3.8730    6.5570 ha        1 HTJ      0.145000
@<TRIPOS>BOND
     1    1    2 ar  
     2    1    6 ar  
     3    1   26 1   
     4    2    3 ar  
     5    2   27 1   
     6    3    4 ar  
     7    3    7 1   
     8    4    5 ar  
     9    4   28 1   
    10    5    6 ar  
    11    5   29 1   
    12    7    8 1   
    13    7   30 1   
    14    7   31 1   
    15    8    9 1   
    16    8   12 1   
    17    9   10 ar  
    18    9   13 ar  
    19   10   11 1   
    20   10   16 ar  
    21   11   12 2   
    22   11   32 1   
    23   13   14 ar  
    24   14   15 ar  
    25   14   20 1   
    26   15   16 ar  
    27   15   33 1   
    28   16   17 1   
    29   17   18 1   
    30   17   19 1   
    31   20   21 ar  
    32   20   25 ar  
    33   21   22 ar  
    34   21   34 1   
    35   22   23 ar  
    36   22   35 1   
    37   23   24 ar  
    38   23   36 1   
    39   24   25 ar  
    40   24   37 1   
    41   25   38 1   
@<TRIPOS>SUBSTRUCTURE
     1 HTJ         1 TEMP              0 ****  ****    0 ROOT
