@<TRIPOS>MOLECULE
molecule
   38    41     1     0     0
SMALL
bcc


@<TRIPOS>ATOM
      1 C1           0.0000     0.0000     0.0000 ca         1 HTJ       0.404200
      2 C2           1.3820     0.0000     0.0000 ca         1 HTJ      -0.222800
      3 C3           2.0580     0.0000     1.2120 ca         1 HTJ      -0.076300
      4 C4           1.3130    -0.0000     2.3820 ca         1 HTJ      -0.222800
      5 C5          -0.0670    -0.0000     2.3020 ca         1 HTJ       0.404200
      6 N6          -0.6760    -0.0000     1.1330 nb         1 HTJ      -0.698000
      7 C7           3.5630    -0.0010     1.2560 c3         1 HTJ       0.141600
      8 N8           4.0520     1.3800     1.2690 na         1 HTJ      -0.062800
      9 C9           4.2880     2.1390     2.3870 ca         1 HTJ       0.465800
     10 C10          4.7450     3.3910     1.9270 ca         1 HTJ      -0.335200
     11 C11          4.7660     3.3340     0.5190 cc         1 HTJ       0.429800
     12 N12          4.3650     2.1530     0.1440 nd         1 HTJ      -0.550100
     13 N13          4.1660     1.9060     3.6860 nb         1 HTJ      -0.760000
     14 C14          4.4660     2.8230     4.5900 cp         1 HTJ       0.509800
     15 C15          4.9260     4.0900     4.2210 ca         1 HTJ      -0.274300
     16 C16          5.0730     4.3930     2.8720 ca         1 HTJ      -0.002600
     17 C18          5.5560     5.7190     2.4370 c          1 HTJ       0.879200
     18 O19          5.6780     5.9650     1.2530 o          1 HTJ      -0.824300
     19 O20          5.8620     6.6580     3.3530 o          1 HTJ      -0.824300
     20 C21          4.3080     2.5000     6.0290 cp         1 HTJ      -0.123500
     21 C22          3.8500     1.2420     6.4170 ca         1 HTJ      -0.103500
     22 C23          3.7060     0.9460     7.7580 ca         1 HTJ      -0.144500
     23 C24          4.0140     1.8960     8.7150 ca         1 HTJ      -0.138000
     24 C25          4.4690     3.1460     8.3360 ca         1 HTJ      -0.144500
     25 C26          4.6230     3.4510     6.9990 ca         1 HTJ      -0.103500
     26 H1          -0.5350     0.0000    -0.9420 h4         1 HTJ       0.016600
     27 H2           1.9240    -0.1730    -0.9220 ha         1 HTJ       0.144000
     28 H4           1.8000    -0.1740     3.3340 ha         1 HTJ       0.144000
     29 H5          -0.6560    -0.0000     3.2110 h4         1 HTJ       0.016600
     30 H7           3.9500    -0.5120     0.3820 h1         1 HTJ       0.064200
     31 H7A          3.8980    -0.5120     2.1500 h1         1 HTJ       0.064200
     32 H11          5.0720     4.1360    -0.1410 h4         1 HTJ       0.092800
     33 H15          5.1790     4.9410     4.8410 ha         1 HTJ       0.182000
     34 H22          3.6090     0.4970     5.6680 ha         1 HTJ       0.149500
     35 H23          3.3500    -0.0310     8.0610 ha         1 HTJ       0.120000
     36 H24          3.8970     1.6610     9.7660 ha         1 HTJ       0.114000
     37 H25          4.7110     3.8850     9.0900 ha         1 HTJ       0.120000
     38 H26          4.9800     4.4300     6.7030 ha         1 HTJ       0.149500
@<TRIPOS>BOND
     1     2     1 ar
     2     1     6 ar
     3     1    26 1
     4     3     2 ar
     5     2    27 1
     6     7     3 1
     7     3     4 ar
     8     4     5 ar
     9     4    28 1
    10     5     6 ar
    11     5    29 1
    12     8     7 1
    13     7    30 1
    14     7    31 1
    15     9     8 1
    16    12     8 1
    17    10     9 ar
    18    13     9 ar
    19    16    10 ar
    20    10    11 1
    21    11    12 2
    22    11    32 1
    23    14    13 ar
    24    15    14 ar
    25    20    14 1
    26    15    16 ar
    27    15    33 1
    28    17    16 1
    29    18    17 1
    30    17    19 1
    31    25    20 ar
    32    20    21 ar
    33    22    21 ar
    34    21    34 1
    35    23    22 ar
    36    22    35 1
    37    24    23 ar
    38    23    36 1
    39    24    25 ar
    40    24    37 1
    41    25    38 1
@<TRIPOS>SUBSTRUCTURE
     1 HTJ         1 TEMP              0 ****  ****    0 ROOT
