@<TRIPOS>MOLECULE
molecule
   34    34     1     0     0
SMALL
bcc


@<TRIPOS>ATOM
      1 C1           0.0000     0.0000     0.0000 ca         1 HTK      -0.081500
      2 C2           1.3780     0.0000     0.0000 ca         1 HTK      -0.141500
      3 C3           2.0740     0.0000     1.1960 ca         1 HTK      -0.101000
      4 C4           1.3930     0.0010     2.4010 ca         1 HTK      -0.141500
      5 C5           0.0150     0.0000     2.4180 ca         1 HTK      -0.081500
      6 C6          -0.6950    -0.0000     1.2130 ca         1 HTK      -0.175600
      7 C7          -2.1670     0.0060     1.2220 c          1 HTK       0.566700
      8 O7          -2.7800     0.0120     0.1760 o          1 HTK      -0.474100
      9 C8          -2.9130     0.0070     2.5310 c3         1 HTK      -0.279400
     10 C9          -4.3960     0.0140     2.2660 c          1 HTK       0.541100
     11 O9          -4.8060     0.0180     1.1290 o          1 HTK      -0.425100
     12 C10         -5.3680     0.0160     3.4170 c3         1 HTK      -0.283400
     13 C11         -6.7780     0.0240     2.8840 c          1 HTK       0.554100
     14 O11         -6.9730     0.0270     1.6920 o          1 HTK      -0.462100
     15 C12         -7.9440     0.0270     3.8380 c3         1 HTK      -0.175400
     16 C13         -9.2520     0.0340     3.0440 c3         1 HTK       0.156100
     17 O13         -9.3700    -1.1850     2.3080 oh         1 HTK      -0.599800
     18 C14        -10.4330     0.1630     4.0090 c3         1 HTK      -0.126100
     19 H1          -0.5430    -0.0000    -0.9370 ha         1 HTK       0.142000
     20 H2           1.9180    -0.0000    -0.9390 ha         1 HTK       0.134000
     21 H3           3.1570     0.0000     1.1890 ha         1 HTK       0.132000
     22 H4           1.9450     0.0010     3.3340 ha         1 HTK       0.134000
     23 H5          -0.5170     0.0000     3.3620 ha         1 HTK       0.142000
     24 H6          -2.6510    -0.8790     3.0960 hc         1 HTK       0.082200
     25 H7          -2.6440     0.8900     3.0990 hc         1 HTK       0.082200
     26 H8          -5.2150    -0.8710     4.0200 hc         1 HTK       0.080200
     27 H9          -5.2070     0.8980     4.0240 hc         1 HTK       0.080200
     28 H10         -7.9040    -0.8590     4.4610 hc         1 HTK       0.070200
     29 H11         -7.8970     0.9100     4.4640 hc         1 HTK       0.070200
     30 H12         -9.2540     0.8720     2.3580 h1         1 HTK       0.045700
     31 H13         -9.9800    -1.0660     1.5990 ho         1 HTK       0.408000
     32 H14        -10.4540    -0.6950     4.6700 hc         1 HTK       0.041367
     33 H15        -10.3230     1.0670     4.5950 hc         1 HTK       0.041367
     34 H16        -11.3570     0.2070     3.4450 hc         1 HTK       0.041367
@<TRIPOS>BOND
     1    18    16 1
     2    14    13 2
     3    16    17 1
     4    16    15 1
     5    11    10 2
     6    13    15 1
     7    13    12 1
     8     2     1 ar
     9     2     3 ar
    10     1     6 ar
    11    10    12 1
    12    10     9 1
    13     3     4 ar
    14     6     7 1
    15     6     5 ar
    16     7     8 2
    17     7     9 1
    18     4     5 ar
    19     1    19 1
    20     2    20 1
    21     3    21 1
    22     4    22 1
    23     5    23 1
    24     9    24 1
    25     9    25 1
    26    12    26 1
    27    12    27 1
    28    15    28 1
    29    15    29 1
    30    16    30 1
    31    17    31 1
    32    18    32 1
    33    18    33 1
    34    18    34 1
@<TRIPOS>SUBSTRUCTURE
     1 HTK         1 TEMP              0 ****  ****    0 ROOT
