@<TRIPOS>MOLECULE
HTK
   34    34     1     0     0
SMALL
bcc


@<TRIPOS>ATOM
      1 C1         -0.1950    0.1170    0.3400 ca        1 HTK     -0.080500
      2 C2          1.1910   -0.0230    0.3880 ca        1 HTK     -0.141500
      3 C3          1.8360   -0.1690    1.6160 ca        1 HTK     -0.096000
      4 C4          1.0930   -0.1740    2.7970 ca        1 HTK     -0.141500
      5 C5         -0.2940   -0.0400    2.7530 ca        1 HTK     -0.080500
      6 C6         -0.9470    0.1040    1.5230 ca        1 HTK     -0.178600
      7 C7         -2.4140    0.2520    1.4300 c         1 HTK      0.593700
      8 O7         -2.9570    0.7310    0.4270 o         1 HTK     -0.529100
      9 C8         -3.2030   -0.2110    2.6250 c3        1 HTK     -0.291400
     10 C9         -4.6640   -0.4600    2.3440 c         1 HTK      0.593100
     11 O9         -5.1250   -1.6030    2.3850 o         1 HTK     -0.518100
     12 C10        -5.4760    0.7600    2.0380 c3        1 HTK     -0.298400
     13 C11        -6.9630    0.5380    1.9730 c         1 HTK      0.588100
     14 O11        -7.6220    0.9530    1.0140 o         1 HTK     -0.537100
     15 C12        -7.5860   -0.1800    3.1310 c3        1 HTK     -0.227400
     16 C13        -9.0790    0.1100    3.2720 c3        1 HTK      0.158100
     17 O13        -9.8220   -0.5130    2.2360 oh        1 HTK     -0.603800
     18 C14        -9.6100   -0.4440    4.5830 c3        1 HTK     -0.094100
     19 H1         -0.7120    0.2440   -0.6250 ha        1 HTK      0.144500
     20 H2          1.7750   -0.0160   -0.5450 ha        1 HTK      0.140500
     21 H3          2.9300   -0.2790    1.6550 ha        1 HTK      0.138000
     22 H4          1.6010   -0.2840    3.7670 ha        1 HTK      0.140500
     23 H5         -0.8670   -0.0420    3.6930 ha        1 HTK      0.144500
     24 H6         -3.1150    0.5720    3.4260 hc        1 HTK      0.094200
     25 H7         -2.7470   -1.1630    3.0150 hc        1 HTK      0.094200
     26 H8         -5.1130    1.1660    1.0470 hc        1 HTK      0.109200
     27 H9         -5.2760    1.5450    2.8160 hc        1 HTK      0.109200
     28 H10        -7.0590    0.1020    4.0780 hc        1 HTK      0.088200
     29 H11        -7.4320   -1.2840    2.9660 hc        1 HTK      0.088200
     30 H12        -9.2440    1.2250    3.2280 h1        1 HTK      0.034700
     31 H13        -9.5250   -0.1210    1.4030 ho        1 HTK      0.422000
     32 H14       -10.7130   -0.2850    4.6390 hc        1 HTK      0.045700
     33 H15        -9.1190    0.0760    5.4380 hc        1 HTK      0.045700
     34 H16        -9.4080   -1.5390    4.6510 hc        1 HTK      0.045700
@<TRIPOS>BOND
     1    1    2 ar  
     2    1    6 ar  
     3    1   19 1   
     4    2    3 ar  
     5    2   20 1   
     6    3    4 ar  
     7    3   21 1   
     8    4    5 ar  
     9    4   22 1   
    10    5    6 ar  
    11    5   23 1   
    12    6    7 1   
    13    7    8 2   
    14    7    9 1   
    15    9   10 1   
    16    9   24 1   
    17    9   25 1   
    18   10   11 2   
    19   10   12 1   
    20   12   13 1   
    21   12   26 1   
    22   12   27 1   
    23   13   14 2   
    24   13   15 1   
    25   15   16 1   
    26   15   28 1   
    27   15   29 1   
    28   16   17 1   
    29   16   18 1   
    30   16   30 1   
    31   17   31 1   
    32   18   32 1   
    33   18   33 1   
    34   18   34 1   
@<TRIPOS>SUBSTRUCTURE
     1 HTK         1 TEMP              0 ****  ****    0 ROOT
