@<TRIPOS>MOLECULE
molecule
   47    48     1     0     0
SMALL
bcc


@<TRIPOS>ATOM
      1 N1'          0.0000     0.0000     0.0000 nb         1 HTL      -0.700000
      2 C2'          1.3470     0.0000     0.0000 ca         1 HTL       0.632300
      3 C2A          2.0120    -0.0010    -1.3350 c3         1 HTL      -0.129400
      4 N3'          2.1560     0.0000     1.0760 nb         1 HTL      -0.721000
      5 C4'          1.5210     0.0010     2.2660 ca         1 HTL       0.695200
      6 N4'          2.3110     0.0000     3.4420 nv         1 HTL      -1.096500
      7 C5'          0.1570     0.0000     2.3870 ca         1 HTL      -0.315900
      8 C6'         -0.5690    -0.0000     1.2240 ca         1 HTL       0.447200
      9 C35         -0.5470     0.0000     3.7150 c3         1 HTL       0.100600
     10 N3          -1.9790    -0.0010     3.5080 na         1 HTL       0.001900
     11 C2          -2.6690    -1.1160     3.4080 cc         1 HTL      -0.203000
     12 S1          -4.3320    -0.7960     3.1670 ss         1 HTL       0.076200
     13 C5          -4.0360     0.8860     3.2100 cc         1 HTL      -0.059400
     14 C4          -2.7190     1.1560     3.4010 cd         1 HTL      -0.003600
     15 C4A         -2.0200     2.4460     3.5020 c3         1 HTL      -0.035800
     16 C5A         -5.1850     1.8390     3.0420 c3         1 HTL      -0.009100
     17 C5B         -5.8390     2.2150     4.3680 c3         1 HTL       0.216400
     18 O5G         -4.8960     2.8710     5.1990 os         1 HTL      -0.590200
     19 P1          -5.3320     3.3790     6.6720 p5         1 HTL       1.372800
     20 O11         -5.9410     2.0660     7.3920 os         1 HTL      -0.675800
     21 O12         -4.2410     4.0570     7.4510 o          1 HTL      -0.828500
     22 O13         -6.6370     4.2990     6.4120 o          1 HTL      -0.828500
     23 P2          -5.2390     0.6840     7.8470 p5         1 HTL       1.245900
     24 O21         -4.6060    -0.0940     6.7300 o          1 HTL      -0.716833
     25 O22         -6.4190    -0.0850     8.6390 o          1 HTL      -0.716833
     26 O23         -4.2310     1.1460     9.0240 o          1 HTL      -0.716833
     27 C1'         -2.1760    -2.4500     3.4800 c          1 HTL       0.570700
     28 O2'         -1.0370    -2.8350     3.1360 o          1 HTL      -0.625100
     29 C3'         -3.0910    -3.5320     4.0190 c3         1 HTL      -0.179100
     30 H2A1         2.9470    -0.5440    -1.2720 hc         1 HTL       0.050033
     31 H2A2         1.3650    -0.4790    -2.0600 hc         1 HTL       0.050033
     32 H2A3         2.2070     1.0190    -1.6420 hc         1 HTL       0.050033
     33 H4'1         2.5440    -0.8650     3.8870 hn         1 HTL       0.437800
     34 H4'2         2.6760     0.8610     3.7990 hn         1 HTL       0.437800
     35 H6'         -1.6500    -0.0010     1.2900 h4         1 HTL       0.041100
     36 H351        -0.2650     0.8850     4.2730 h1         1 HTL       0.095200
     37 H352        -0.2640    -0.8840     4.2740 h1         1 HTL       0.095200
     38 H4A1        -1.5420     2.5230     4.4710 hc         1 HTL       0.063367
     39 H4A2        -1.2690     2.5120     2.7230 hc         1 HTL       0.063367
     40 H4A3        -2.7330     3.2530     3.3860 hc         1 HTL       0.063367
     41 H5A1        -4.8230     2.7410     2.5630 hc         1 HTL       0.035700
     42 H5A2        -5.9300     1.3790     2.4040 hc         1 HTL       0.035700
     43 H5B1        -6.1930     1.3190     4.8620 h1         1 HTL       0.044200
     44 H5B2        -6.6760     2.8770     4.1820 h1         1 HTL       0.044200
     45 H3'1        -2.5490    -4.4690     4.0710 hc         1 HTL       0.060700
     46 H3'2        -3.4310    -3.2560     5.0100 hc         1 HTL       0.060700
     47 H3'3        -3.9440    -3.6440     3.3620 hc         1 HTL       0.060700
@<TRIPOS>BOND
     1     1     2 ar
     2     1     8 ar
     3     2     3 1
     4     2     4 ar
     5     3    30 1
     6     3    31 1
     7     3    32 1
     8     4     5 ar
     9     5     6 1
    10     5     7 ar
    11     6    33 1
    12     6    34 1
    13     7     8 ar
    14     7     9 1
    15     8    35 1
    16     9    10 1
    17     9    36 1
    18     9    37 1
    19    10    11 2
    20    10    14 1
    21    11    12 1
    22    11    27 1
    23    12    13 1
    24    13    14 2
    25    13    16 1
    26    14    15 1
    27    15    38 1
    28    15    39 1
    29    15    40 1
    30    16    17 1
    31    16    41 1
    32    16    42 1
    33    17    18 1
    34    17    43 1
    35    17    44 1
    36    18    19 1
    37    19    20 1
    38    19    21 1
    39    19    22 1
    40    20    23 1
    41    23    24 1
    42    23    25 1
    43    23    26 1
    44    27    28 2
    45    27    29 1
    46    29    45 1
    47    29    46 1
    48    29    47 1
@<TRIPOS>SUBSTRUCTURE
     1 HTL         1 TEMP              0 ****  ****    0 ROOT
