@<TRIPOS>MOLECULE
molecule
   35    35     1     0     0
SMALL
bcc


@<TRIPOS>ATOM
      1 O1A          0.0000     0.0000     0.0000 o          1 HTM      -0.818300
      2 C1           1.3470     0.0000     0.0000 c          1 HTM       0.884800
      3 C2           2.0840     0.0000     1.2760 ce         1 HTM       0.057900
      4 C3           3.4010    -0.0010     1.2020 c2         1 HTM      -0.336200
      5 C4           4.2780     0.0180     2.4290 c3         1 HTM       0.181300
      6 C5           3.3930    -0.2660     3.6520 c3         1 HTM       0.093700
      7 C6           2.0990     0.5410     3.4820 c3         1 HTM       0.306900
      8 C8          -0.6710     1.3010     5.7570 c3         1 HTM      -0.082400
      9 C9          -1.8790     2.2210     5.5610 c3         1 HTM       0.139400
     10 C11          5.6490    -0.2610     6.7440 c3         1 HTM      -0.174100
     11 N5           4.0840     0.1520     4.8730 ns         1 HTM      -0.574900
     12 O1B          1.9560    -0.0010    -1.0520 o          1 HTM      -0.818300
     13 O4           5.2860    -0.9880     2.3190 oh         1 HTM      -0.579800
     14 O6           1.3480     0.0010     2.4000 os         1 HTM      -0.284900
     15 O7           1.3280     0.4700     4.6820 os         1 HTM      -0.400600
     16 O9          -2.6930     2.1930     6.7350 oh         1 HTM      -0.616800
     17 O10          5.1350    -1.7970     5.0270 o          1 HTM      -0.588100
     18 H3           3.8700    -0.0170     0.2250 ha         1 HTM       0.171000
     19 H4           4.7380     0.9940     2.5320 h1         1 HTM       0.015700
     20 H5           3.1610    -1.3230     3.6970 h1         1 HTM       0.119700
     21 H6           2.3460     1.5740     3.2660 h2         1 HTM       0.030700
     22 H71         -0.3790     0.9900     3.6500 h1         1 HTM       0.046700
     23 H72          0.5440     2.3420     4.3210 h1         1 HTM       0.046700
     24 H81         -0.0910     1.6410     6.6060 hc         1 HTM       0.058200
     25 H82         -1.0140     0.2890     5.9350 hc         1 HTM       0.058200
     26 H91         -2.4580     1.8820     4.7110 h1         1 HTM       0.024200
     27 H92         -1.5360     3.2340     5.3840 h1         1 HTM       0.024200
     28 H111         4.9290    -0.1510     7.5460 hc         1 HTM       0.052033
     29 H112         6.1570     0.6820     6.5820 hc         1 HTM       0.052033
     30 H113         6.3750    -1.0200     7.0120 hc         1 HTM       0.052033
     31 HN5          3.9270     1.0660     5.2490 hn         1 HTM       0.305500
     32 HO4          6.0390    -0.6320     1.8760 ho         1 HTM       0.388000
     33 HO9         -3.4330     2.7660     6.6180 ho         1 HTM       0.396000
     34 C7           0.2010     1.3300     4.4990 c3         1 HTM       0.121400
     35 C10          4.9390    -0.6920     5.4870 c          1 HTM       0.653100
@<TRIPOS>BOND
     1     1     2 1
     2     2     3 1
     3     2    12 1
     4     3     4 2
     5     3    14 1
     6     4     5 1
     7     4    18 1
     8     5     6 1
     9     5    13 1
    10     5    19 1
    11     6     7 1
    12     6    11 1
    13     6    20 1
    14     7    14 1
    15     7    15 1
    16     7    21 1
    17    34     8 1
    18    34    15 1
    19    34    22 1
    20    34    23 1
    21     8     9 1
    22     8    24 1
    23     8    25 1
    24     9    16 1
    25     9    26 1
    26     9    27 1
    27    35    10 1
    28    35    11 1
    29    35    17 2
    30    10    28 1
    31    10    29 1
    32    10    30 1
    33    11    31 1
    34    13    32 1
    35    16    33 1
@<TRIPOS>SUBSTRUCTURE
     1 HTM         1 TEMP              0 ****  ****    0 ROOT
