@<TRIPOS>MOLECULE
molecule
   26    25     1     0     0
SMALL
bcc


@<TRIPOS>ATOM
      1 C1           0.0000     0.0000     0.0000 c3         1 HTO       0.119400
      2 O1          -0.4770     1.1650     0.6750 oh         1 HTO      -0.609800
      3 C2           1.5300     0.0000     0.0000 c3         1 HTO       0.145100
      4 O2           2.0060     0.0000     1.3460 oh         1 HTO      -0.577800
      5 C3           2.0400    -1.2480    -0.7220 c3         1 HTO       0.145100
      6 O3           1.5650    -2.4150    -0.0500 oh         1 HTO      -0.584800
      7 C4           3.5690    -1.2470    -0.7230 c3         1 HTO      -0.094400
      8 C5           4.0800    -2.4960    -1.4450 c3         1 HTO      -0.082400
      9 C6           5.6100    -2.4950    -1.4460 c3         1 HTO      -0.082400
     10 C7           6.1200    -3.7440    -2.1680 c3         1 HTO      -0.092100
     11 H11         -0.3610    -0.8850     0.5090 h1         1 HTO       0.032700
     12 H12         -0.3610     0.0010    -1.0210 h1         1 HTO       0.032700
     13 HO1         -1.3740     1.3250     0.4310 ho         1 HTO       0.402000
     14 H2           1.8900     0.8850    -0.5100 h1         1 HTO       0.040700
     15 HO2          2.3280     0.8580     1.5650 ho         1 HTO       0.403000
     16 H3           1.6790    -1.2480    -1.7430 h1         1 HTO       0.030700
     17 HO3          1.1160    -2.9710    -0.6650 ho         1 HTO       0.394000
     18 H41          3.9300    -0.3620    -1.2330 hc         1 HTO       0.056700
     19 H42          3.9310    -1.2480     0.2990 hc         1 HTO       0.056700
     20 H51          3.7180    -2.4950    -2.4660 hc         1 HTO       0.042700
     21 H52          3.7200    -3.3810    -0.9350 hc         1 HTO       0.042700
     22 H61          5.9700    -1.6100    -1.9560 hc         1 HTO       0.041200
     23 H62          5.9710    -2.4960    -0.4250 hc         1 HTO       0.041200
     24 H71          7.2040    -3.7430    -2.1680 hc         1 HTO       0.032700
     25 H72          5.7600    -4.6290    -1.6580 hc         1 HTO       0.032700
     26 H73          5.7590    -3.7430    -3.1890 hc         1 HTO       0.032700
@<TRIPOS>BOND
     1     1     2 1
     2     1     3 1
     3     1    11 1
     4     1    12 1
     5     2    13 1
     6     3     4 1
     7     3     5 1
     8     3    14 1
     9     4    15 1
    10     5     6 1
    11     5     7 1
    12     5    16 1
    13     6    17 1
    14     7     8 1
    15     7    18 1
    16     7    19 1
    17     8     9 1
    18     8    20 1
    19     8    21 1
    20     9    10 1
    21     9    22 1
    22     9    23 1
    23    10    24 1
    24    10    25 1
    25    10    26 1
@<TRIPOS>SUBSTRUCTURE
     1 HTO         1 TEMP              0 ****  ****    0 ROOT
