@<TRIPOS>MOLECULE
HTO
   26    25     1     0     0
SMALL
bcc


@<TRIPOS>ATOM
      1 C1          0.0380    0.1290   -0.1320 c3        1 HTO      0.091400
      2 O1         -0.3340    1.2520    0.6530 oh        1 HTO     -0.615800
      3 C2          1.5580   -0.0010   -0.0040 c3        1 HTO      0.109100
      4 O2          1.9420   -0.1170    1.3590 oh        1 HTO     -0.612800
      5 C3          2.0380   -1.2860   -0.7050 c3        1 HTO      0.147100
      6 O3          1.5370   -2.4300   -0.0380 oh        1 HTO     -0.599800
      7 C4          3.5600   -1.3010   -0.7890 c3        1 HTO     -0.108400
      8 C5          4.0560   -2.5090   -1.5520 c3        1 HTO     -0.079400
      9 C6          5.5680   -2.5810   -1.5470 c3        1 HTO     -0.079400
     10 C7          6.0660   -3.7750   -2.3190 c3        1 HTO     -0.092100
     11 H11        -0.2480    0.2990   -1.2020 h1        1 HTO      0.043700
     12 H12        -0.4560   -0.8030    0.2500 h1        1 HTO      0.043700
     13 HO1        -1.2960    1.2450    0.7110 ho        1 HTO      0.410000
     14 H2          2.0570    0.9000   -0.4540 h1        1 HTO      0.052700
     15 HO2         1.4980    0.5970    1.8360 ho        1 HTO      0.426000
     16 H3          1.5830   -1.3410   -1.7340 h1        1 HTO      0.073700
     17 HO3         1.8630   -2.3930    0.8710 ho        1 HTO      0.417000
     18 H41         3.9080   -0.3620   -1.2920 hc        1 HTO      0.052700
     19 H42         3.9790   -1.3030    0.2520 hc        1 HTO      0.052700
     20 H51         3.6280   -3.4380   -1.0890 hc        1 HTO      0.046700
     21 H52         3.6840   -2.4660   -2.6090 hc        1 HTO      0.046700
     22 H61         5.9880   -1.6410   -1.9930 hc        1 HTO      0.038200
     23 H62         5.9360   -2.6360   -0.4880 hc        1 HTO      0.038200
     24 H71         5.7340   -3.7230   -3.3840 hc        1 HTO      0.032700
     25 H72         7.1820   -3.8120   -2.2990 hc        1 HTO      0.032700
     26 H73         5.6730   -4.7220   -1.8770 hc        1 HTO      0.032700
@<TRIPOS>BOND
     1    1    2 1   
     2    1    3 1   
     3    1   11 1   
     4    1   12 1   
     5    2   13 1   
     6    3    4 1   
     7    3    5 1   
     8    3   14 1   
     9    4   15 1   
    10    5    6 1   
    11    5    7 1   
    12    5   16 1   
    13    6   17 1   
    14    7    8 1   
    15    7   18 1   
    16    7   19 1   
    17    8    9 1   
    18    8   20 1   
    19    8   21 1   
    20    9   10 1   
    21    9   22 1   
    22    9   23 1   
    23   10   24 1   
    24   10   25 1   
    25   10   26 1   
@<TRIPOS>SUBSTRUCTURE
     1 HTO         1 TEMP              0 ****  ****    0 ROOT
