@<TRIPOS>MOLECULE
molecule
   26    27     1     0     0
SMALL
bcc


@<TRIPOS>ATOM
      1 C1           0.0000     0.0000     0.0000 cc         1 HTP      -0.147900
      2 C2           1.5050     0.0000     0.0000 c3         1 HTP       0.197400
      3 C3           1.9860     0.0000     1.4580 c3         1 HTP       0.121100
      4 C4           1.2140     1.0710     2.2360 c3         1 HTP       0.130100
      5 C5          -0.2540     0.6530     2.3610 c3         1 HTP       0.014000
      6 C6          -1.0730     1.8200     2.9180 c3         1 HTP       0.117400
      7 C7          -0.8590    -0.2920    -1.0530 cd         1 HTP       0.340200
      8 N17         -1.9890     0.1870     0.6720 na         1 HTP       0.083100
      9 N18         -2.0740    -0.1570    -0.5660 nd         1 HTP      -0.387800
     10 N1          -0.7630     0.2850     1.0350 na         1 HTP       0.035600
     11 O2           1.9880    -1.1690    -0.6660 oh         1 HTP      -0.566800
     12 O3           3.3840     0.2900     1.5030 oh         1 HTP      -0.574800
     13 O4           1.7820     1.2150     3.5390 oh         1 HTP      -0.566800
     14 O6          -2.4180     1.3940     3.1390 oh         1 HTP      -0.644800
     15 H2           1.8680     0.8890    -0.5020 h1         1 HTP       0.098700
     16 H3           1.7980    -0.9710     1.9000 h1         1 HTP       0.080700
     17 H4           1.2750     2.0130     1.7040 h1         1 HTP       0.066700
     18 H5          -0.3310    -0.1990     3.0260 h1         1 HTP       0.137700
     19 H61         -1.0650     2.6380     2.2080 h1         1 HTP       0.074700
     20 H62         -0.6400     2.1510     3.8540 h1         1 HTP       0.074700
     21 H7          -0.5850    -0.5720    -2.0630 h4         1 HTP       0.114100
     22 HN7         -2.7740     0.3530     1.2710 hn         1 HTP       0.424700
     23 HO2          2.4900    -0.9150    -1.4230 ho         1 HTP       0.440000
     24 HO3          3.8470    -0.4500     1.8600 ho         1 HTP       0.442000
     25 HO4          2.1970     2.0590     3.6090 ho         1 HTP       0.442000
     26 HO6         -2.8150     1.9370     3.8000 ho         1 HTP       0.457000
@<TRIPOS>BOND
     1     1     2 1
     2     1     7 2
     3     1    10 1
     4     2     3 1
     5     2    11 1
     6     2    15 1
     7     3     4 1
     8     3    12 1
     9     3    16 1
    10     4     5 1
    11     4    13 1
    12     4    17 1
    13     5     6 1
    14     5    10 1
    15     5    18 1
    16     6    14 1
    17     6    19 1
    18     6    20 1
    19     7     9 1
    20     7    21 1
    21     8     9 2
    22     8    10 1
    23     8    22 1
    24    11    23 1
    25    12    24 1
    26    13    25 1
    27    14    26 1
@<TRIPOS>SUBSTRUCTURE
     1 HTP         1 TEMP              0 ****  ****    0 ROOT
