@<TRIPOS>MOLECULE
HTP
   26    27     1     0     0
SMALL
bcc


@<TRIPOS>ATOM
      1 C1          0.0760   -0.0440   -0.0360 cc        1 HTP     -0.103900
      2 C2          1.5720   -0.0030    0.0580 c3        1 HTP      0.167400
      3 C3          2.0160    0.0970    1.5380 c3        1 HTP      0.105100
      4 C4          1.1920    1.1560    2.2970 c3        1 HTP      0.145100
      5 C5         -0.3130    0.7760    2.3400 c3        1 HTP      0.001000
      6 C6         -1.1270    1.9650    2.8920 c3        1 HTP      0.115400
      7 C7         -0.8220   -0.4400   -1.0940 cd        1 HTP      0.306200
      8 N17        -2.0380    0.1850    0.5900 na        1 HTP      0.059100
      9 N18        -2.1070   -0.2610   -0.6430 nd        1 HTP     -0.354800
     10 N1         -0.7520    0.3500    1.0000 na        1 HTP     -0.014400
     11 O2          2.1330   -1.1980   -0.4340 oh        1 HTP     -0.560800
     12 O3          3.3500    0.5530    1.5950 oh        1 HTP     -0.584800
     13 O4          1.5780    1.1990    3.6550 oh        1 HTP     -0.587800
     14 O6         -2.4850    1.5970    2.9900 oh        1 HTP     -0.629800
     15 H2          1.9380    0.8990   -0.5150 h1        1 HTP      0.108700
     16 H3          1.9160   -0.9110    2.0300 h1        1 HTP      0.092700
     17 H4          1.3340    2.1670    1.8220 h1        1 HTP      0.081700
     18 H5         -0.4500   -0.1150    3.0280 h1        1 HTP      0.126700
     19 H61        -1.0860    2.8470    2.1960 h1        1 HTP      0.101200
     20 H62        -0.6740    2.2450    3.8830 h1        1 HTP      0.101200
     21 H7         -0.5890   -0.8290   -2.0910 h4        1 HTP      0.110100
     22 HN7        -2.8250    0.5120    1.1580 hn        1 HTP      0.427700
     23 HO2         2.2180   -1.1200   -1.3950 ho        1 HTP      0.435000
     24 HO3         3.9170   -0.1790    1.3110 ho        1 HTP      0.447000
     25 HO4         2.5390    1.3420    3.6720 ho        1 HTP      0.460000
     26 HO6        -2.6910    1.4080    3.9150 ho        1 HTP      0.447000
@<TRIPOS>BOND
     1    1    2 1   
     2    1    7 2   
     3    1   10 1   
     4    2    3 1   
     5    2   11 1   
     6    2   15 1   
     7    3    4 1   
     8    3   12 1   
     9    3   16 1   
    10    4    5 1   
    11    4   13 1   
    12    4   17 1   
    13    5    6 1   
    14    5   10 1   
    15    5   18 1   
    16    6   14 1   
    17    6   19 1   
    18    6   20 1   
    19    7    9 1   
    20    7   21 1   
    21    8    9 2   
    22    8   10 1   
    23    8   22 1   
    24   11   23 1   
    25   12   24 1   
    26   13   25 1   
    27   14   26 1   
@<TRIPOS>SUBSTRUCTURE
     1 HTP         1 TEMP              0 ****  ****    0 ROOT
