@<TRIPOS>MOLECULE
HTP
   26    27     1     0     0
SMALL
bcc


@<TRIPOS>ATOM
      1 C1          0.0750   -0.0550   -0.0320 cc        1 HTP     -0.103900
      2 C2          1.5710   -0.0070    0.0590 c3        1 HTP      0.167400
      3 C3          2.0180    0.1050    1.5370 c3        1 HTP      0.105100
      4 C4          1.1910    1.1650    2.2900 c3        1 HTP      0.145100
      5 C5         -0.3120    0.7810    2.3400 c3        1 HTP      0.001000
      6 C6         -1.1290    1.9700    2.8850 c3        1 HTP      0.115400
      7 C7         -0.8240   -0.4620   -1.0840 cd        1 HTP      0.306200
      8 N17        -2.0380    0.1690    0.5980 na        1 HTP      0.059100
      9 N18        -2.1080   -0.2850   -0.6320 nd        1 HTP     -0.354800
     10 N1         -0.7520    0.3430    1.0040 na        1 HTP     -0.014400
     11 O2          2.1360   -1.2020   -0.4260 oh        1 HTP     -0.560800
     12 O3          3.3500    0.5660    1.5890 oh        1 HTP     -0.584800
     13 O4          1.5800    1.2190    3.6480 oh        1 HTP     -0.587800
     14 O6         -2.4860    1.5970    2.9880 oh        1 HTP     -0.629800
     15 H2          1.9330    0.8930   -0.5210 h1        1 HTP      0.108700
     16 H3          1.9230   -0.9000    2.0370 h1        1 HTP      0.092700
     17 H4          1.3280    2.1740    1.8090 h1        1 HTP      0.081700
     18 H5         -0.4440   -0.1060    3.0350 h1        1 HTP      0.126700
     19 H61        -1.0940    2.8470    2.1830 h1        1 HTP      0.101200
     20 H62        -0.6760    2.2580    3.8730 h1        1 HTP      0.101200
     21 H7         -0.5920   -0.8570   -2.0790 h4        1 HTP      0.110100
     22 HN7        -2.8260    0.4980    1.1650 hn        1 HTP      0.427700
     23 HO2         2.2190   -1.1310   -1.3880 ho        1 HTP      0.435000
     24 HO3         3.9200   -0.1650    1.3080 ho        1 HTP      0.447000
     25 HO4         2.5410    1.3660    3.6620 ho        1 HTP      0.460000
     26 HO6        -2.6890    1.4140    3.9150 ho        1 HTP      0.447000
@<TRIPOS>BOND
     1    1    2 1   
     2    1    7 2   
     3    1   10 1   
     4    2    3 1   
     5    2   11 1   
     6    2   15 1   
     7    3    4 1   
     8    3   12 1   
     9    3   16 1   
    10    4    5 1   
    11    4   13 1   
    12    4   17 1   
    13    5    6 1   
    14    5   10 1   
    15    5   18 1   
    16    6   14 1   
    17    6   19 1   
    18    6   20 1   
    19    7    9 1   
    20    7   21 1   
    21    8    9 2   
    22    8   10 1   
    23    8   22 1   
    24   11   23 1   
    25   12   24 1   
    26   13   25 1   
    27   14   26 1   
@<TRIPOS>SUBSTRUCTURE
     1 HTP         1 TEMP              0 ****  ****    0 ROOT
