@<TRIPOS>MOLECULE
molecule
   41    43     1     0     0
SMALL
bcc


@<TRIPOS>ATOM
      1 C1           0.0000     0.0000     0.0000 c3         1 HTQ       0.138000
      2 C2           1.5370     0.0000     0.0000 c3         1 HTQ      -0.074900
      3 C3           2.0330     0.0000     1.4490 c3         1 HTQ       0.153100
      4 C4           1.3730     1.1990     2.2210 c3         1 HTQ      -0.074900
      5 C5          -0.1520     1.0930     2.0570 c3         1 HTQ       0.138000
      6 C6          -0.5720    -0.3650     2.3530 c3         1 HTQ      -0.110900
      7 C7          -0.4730    -1.0880     0.9930 c3         1 HTQ      -0.110900
      8 N8          -0.4540     1.2760     0.6130 n3         1 HTQ      -0.660600
      9 C9          -1.9180     1.3070     0.4890 c3         1 HTQ       0.117100
     10 O10          1.6640    -1.2510     2.0850 os         1 HTQ      -0.426900
     11 C11          2.4330    -1.7590     3.0620 c          1 HTQ       0.606100
     12 O12          3.4310    -1.1750     3.4110 o          1 HTQ      -0.522000
     13 C13          2.0500    -3.0580     3.7230 c3         1 HTQ       0.158400
     14 C14          2.1230    -4.1760     2.7150 ca         1 HTQ      -0.109300
     15 C15          0.9850    -4.5680     2.0340 ca         1 HTQ      -0.100500
     16 C16          3.3290    -4.8040     2.4660 ca         1 HTQ      -0.100500
     17 C17          1.0530    -5.5930     1.1100 ca         1 HTQ      -0.133000
     18 C18          3.3940    -5.8330     1.5450 ca         1 HTQ      -0.133000
     19 C19          2.2570    -6.2260     0.8650 ca         1 HTQ      -0.117000
     20 O20          2.9500    -3.3290     4.8000 oh         1 HTQ      -0.568800
     21 H11         -0.4110    -0.1460    -0.9920 h1         1 HTQ       0.072200
     22 H21          1.9000     0.8850    -0.5080 hc         1 HTQ       0.061450
     23 H22          1.9000    -0.8850    -0.5080 hc         1 HTQ       0.061450
     24 H31          3.1110     0.1090     1.4630 h1         1 HTQ       0.070700
     25 H41          1.6330     1.1450     3.2710 hc         1 HTQ       0.061450
     26 H42          1.7210     2.1370     1.8060 hc         1 HTQ       0.061450
     27 H51         -0.6820     1.8050     2.6780 h1         1 HTQ       0.072200
     28 H61          0.1040    -0.8150     3.0690 hc         1 HTQ       0.053450
     29 H62         -1.5900    -0.3960     2.7230 hc         1 HTQ       0.053450
     30 H71          0.2520    -1.8910     1.0450 hc         1 HTQ       0.053450
     31 H72         -1.4420    -1.4720     0.6980 hc         1 HTQ       0.053450
     32 H91         -2.3380     0.4230     0.9550 h1         1 HTQ       0.035700
     33 H92         -2.1910     1.3280    -0.5590 h1         1 HTQ       0.035700
     34 H93         -2.3030     2.1920     0.9810 h1         1 HTQ       0.035700
     35 H131         1.0400    -2.9830     4.1070 h1         1 HTQ       0.059700
     36 H151         0.0410    -4.0720     2.2260 ha         1 HTQ       0.142500
     37 H161         4.2200    -4.4960     2.9990 ha         1 HTQ       0.142500
     38 H171         0.1610    -5.9010     0.5770 ha         1 HTQ       0.132500
     39 H181         4.3390    -6.3270     1.3520 ha         1 HTQ       0.132500
     40 H191         2.3080    -7.0310     0.1420 ha         1 HTQ       0.131000
     41 H201         2.4850    -3.2770     5.6190 ho         1 HTQ       0.411000
@<TRIPOS>BOND
     1     1     2 1
     2     1     7 1
     3     1     8 1
     4     1    21 1
     5     2     3 1
     6     2    22 1
     7     2    23 1
     8     3     4 1
     9     3    10 1
    10     3    24 1
    11     4     5 1
    12     4    25 1
    13     4    26 1
    14     5     6 1
    15     5     8 1
    16     5    27 1
    17     6     7 1
    18     6    28 1
    19     6    29 1
    20     7    30 1
    21     7    31 1
    22     8     9 1
    23     9    32 1
    24     9    33 1
    25     9    34 1
    26    10    11 1
    27    11    12 2
    28    11    13 1
    29    13    14 1
    30    13    20 1
    31    13    35 1
    32    14    15 ar
    33    14    16 ar
    34    15    17 ar
    35    15    36 1
    36    16    18 ar
    37    16    37 1
    38    17    19 ar
    39    17    38 1
    40    18    19 ar
    41    18    39 1
    42    19    40 1
    43    20    41 1
@<TRIPOS>SUBSTRUCTURE
     1 HTQ         1 TEMP              0 ****  ****    0 ROOT
