@<TRIPOS>MOLECULE
molecule
   14    14     1     0     0
SMALL
bcc


@<TRIPOS>ATOM
      1 C6           0.0000     0.0000     0.0000 ca         1 HTS      -0.170000
      2 C1           1.3850     0.0000     0.0000 ca         1 HTS       0.150100
      3 C2           2.0780     0.0000     1.2090 ca         1 HTS       0.007900
      4 C3           1.3770    -0.0010     2.4060 ca         1 HTS      -0.083000
      5 C4          -0.0050    -0.0010     2.3970 ca         1 HTS      -0.148000
      6 C5          -0.6930    -0.0010     1.1980 ca         1 HTS      -0.094000
      7 O1           2.0660     0.0010    -1.1780 oh         1 HTS      -0.509100
      8 S1           3.8400     0.0000     1.2170 sh         1 HTS      -0.348700
      9 H6          -0.5410    -0.0000    -0.9380 ha         1 HTS       0.143000
     10 H3           1.9130    -0.0010     3.3480 ha         1 HTS       0.144000
     11 H4          -0.5520    -0.0020     3.3320 ha         1 HTS       0.136000
     12 H5          -1.7760    -0.0010     1.1960 ha         1 HTS       0.135000
     13 HO1          2.0740    -0.8710    -1.5370 ho         1 HTS       0.427000
     14 HS1          4.2800     1.1870     1.6180 hs         1 HTS       0.209800
@<TRIPOS>BOND
     1     1     2 ar
     2     1     6 ar
     3     1     9 1
     4     2     3 ar
     5     2     7 1
     6     3     4 ar
     7     3     8 1
     8     4     5 ar
     9     4    10 1
    10     5     6 ar
    11     5    11 1
    12     6    12 1
    13     7    13 1
    14     8    14 1
@<TRIPOS>SUBSTRUCTURE
     1 HTS         1 TEMP              0 ****  ****    0 ROOT
