@<TRIPOS>MOLECULE
HTS
   14    14     1     0     0
SMALL
bcc


@<TRIPOS>ATOM
      1 C6         -0.0890   -0.0180   -0.0060 ca        1 HTS     -0.173000
      2 C1          1.3180   -0.0970   -0.0330 ca        1 HTS      0.179100
      3 C2          2.0630   -0.1020    1.1620 ca        1 HTS     -0.111100
      4 C3          1.3740   -0.0300    2.3780 ca        1 HTS     -0.051000
      5 C4         -0.0130    0.0520    2.4110 ca        1 HTS     -0.181000
      6 C5         -0.7410    0.0570    1.2160 ca        1 HTS     -0.069000
      7 O1          1.8910   -0.1670   -1.2740 oh        1 HTS     -0.495100
      8 S1          3.7600   -0.2800    1.1310 sh        1 HTS     -0.308700
      9 H6         -0.6420   -0.0180   -0.9560 ha        1 HTS      0.154000
     10 H3          1.9470   -0.0440    3.3190 ha        1 HTS      0.143000
     11 H4         -0.5390    0.1090    3.3740 ha        1 HTS      0.138000
     12 H5         -1.8400    0.1200    1.2450 ha        1 HTS      0.137000
     13 HO1         2.8580   -0.2280   -1.1550 ho        1 HTS      0.441000
     14 HS1         4.1100    0.9660    1.4190 hs        1 HTS      0.194800
@<TRIPOS>BOND
     1    1    2 ar  
     2    1    6 ar  
     3    1    9 1   
     4    2    3 ar  
     5    2    7 1   
     6    3    4 ar  
     7    3    8 1   
     8    4    5 ar  
     9    4   10 1   
    10    5    6 ar  
    11    5   11 1   
    12    6   12 1   
    13    7   13 1   
    14    8   14 1   
@<TRIPOS>SUBSTRUCTURE
     1 HTS         1 TEMP              0 ****  ****    0 ROOT
