@<TRIPOS>MOLECULE
HTT
   53    57     1     0     0
SMALL
bcc


@<TRIPOS>ATOM
      1 Cl8          0.0000     0.0000     0.0000 cl         1 HTT       0.032600
      2 C4           1.7360     0.0000     0.0000 cc         1 HTT      -0.075800
      3 C5           2.5370     0.0000     1.0780 cd         1 HTT      -0.223300
      4 C6           2.0630     0.0010     2.5100 c3         1 HTT       0.055800
      5 C7           1.7840    -1.4360     2.9540 c3         1 HTT       0.005900
      6 N1           3.8520     0.0000     0.6810 na         1 HTT       0.302900
      7 C3           2.6090    -0.0070    -1.1740 ca         1 HTT      -0.308400
      8 C9           2.4030    -0.0110    -2.5630 ca         1 HTT       0.541200
      9 N13          1.1230    -0.0080    -3.0880 nh         1 HTT      -0.479300
     10 C17          0.8960     1.1980    -3.9250 c3         1 HTT       0.141800
     11 C16         -0.3050     0.7900    -4.8150 c3         1 HTT      -0.022400
     12 C15         -0.0240    -0.7010    -5.1130 c3         1 HTT      -0.096500
     13 N18          0.6360    -0.8450    -6.4180 nz         1 HTT       0.073400
     14 C14          0.9160    -1.1660    -3.9850 c3         1 HTT       0.147800
     15 N10          3.4660    -0.0190    -3.3600 nb         1 HTT      -0.687000
     16 C11          4.6950    -0.0220    -2.8590 ca         1 HTT       0.756300
     17 N12          4.9330    -0.0180    -1.5590 nb         1 HTT      -0.594000
     18 C2           3.9270    -0.0010    -0.6840 ca         1 HTT       0.274800
     19 S19          6.0630    -0.0310    -3.9710 ss         1 HTT      -0.346200
     20 C20          7.3890    -0.1950    -2.8230 ca         1 HTT      -0.080400
     21 C25          7.8980    -1.4480    -2.5050 ca         1 HTT       0.427200
     22 N24          8.8920    -1.5810    -1.6500 nb         1 HTT      -0.556000
     23 C23          9.4490    -0.5400    -1.0550 ca         1 HTT       0.371600
     24 C26         10.5880    -0.7570    -0.0970 c3         1 HTT      -0.003500
     25 C27         10.8250     0.4550     0.7520 c2         1 HTT      -0.213200
     26 C28         10.3460     1.6400     0.4520 c2         1 HTT      -0.084000
     27 N29          9.5740     1.8400    -0.6840 nh         1 HTT       0.045700
     28 O30          9.3790     3.1470    -1.1930 oh         1 HTT      -0.417300
     29 C22          8.9890     0.7440    -1.3210 ca         1 HTT      -0.090700
     30 C21          7.9490     0.9300    -2.2220 ca         1 HTT      -0.048000
     31 H1           1.1560     0.5870     2.5900 hc         1 HTT       0.029200
     32 H2           2.8290     0.4330     3.1440 hc         1 HTT       0.029200
     33 H3           1.6280    -1.4590     4.0260 hc         1 HTT       0.010367
     34 H4           2.6290    -2.0640     2.6990 hc         1 HTT       0.010367
     35 H5           0.8970    -1.8030     2.4530 hc         1 HTT       0.010367
     36 H6           4.6390     0.0000     1.2990 hn         1 HTT       0.135700
     37 H7           0.6380     2.0490    -3.3050 h1         1 HTT       0.045700
     38 H8           1.7660     1.4090    -4.5340 h1         1 HTT       0.045700
     39 H9          -0.3140     1.3670    -5.7320 hc         1 HTT       0.049700
     40 H10         -1.2370     0.9020    -4.2740 hc         1 HTT       0.049700
     41 H11         -0.9470    -1.2680    -5.0870 hx         1 HTT       0.097700
     42 H12          0.8680    -1.8060    -6.5700 hn         1 HTT       0.227133
     43 H13          0.0170    -0.5330    -7.1400 hn         1 HTT       0.227133
     44 H15          1.8640    -1.4820    -4.4030 h1         1 HTT       0.047700
     45 H16          0.4580    -1.9800    -3.4360 h1         1 HTT       0.047700
     46 H17          7.4730    -2.3300    -2.9700 h4         1 HTT      -0.009900
     47 H18         11.4870    -0.9750    -0.6600 hc         1 HTT       0.035700
     48 H19         11.4190     0.3490     1.6520 ha         1 HTT       0.121000
     49 H20         10.5570     2.4790     1.1050 h4         1 HTT       0.130000
     50 H21         10.2120     3.5180    -1.4340 ho         1 HTT       0.406000
     51 H22          7.7540     1.9150    -2.6280 ha         1 HTT       0.138000
     52 H14         10.3540    -1.5970     0.5460 hc         1 HTT       0.035700
     53 H183         1.4740    -0.2990    -6.4300 hn         1 HTT       0.227133
@<TRIPOS>BOND
     1     1     2 1   
     2     2     3 2   
     3     2     7 1   
     4     3     4 1   
     5     3     6 1   
     6     4     5 1   
     7     4    31 1   
     8     4    32 1   
     9     5    33 1   
    10     5    34 1   
    11     5    35 1   
    12     6    18 1   
    13     6    36 1   
    14     7     8 ar  
    15     7    18 ar  
    16     8     9 1   
    17     8    15 ar  
    18     9    10 1   
    19     9    14 1   
    20    10    11 1   
    21    10    37 1   
    22    10    38 1   
    23    11    12 1   
    24    11    39 1   
    25    11    40 1   
    26    12    13 1   
    27    12    14 1   
    28    12    41 1   
    29    13    42 1   
    30    13    43 1   
    31    13    53 1   
    32    14    44 1   
    33    14    45 1   
    34    15    16 ar  
    35    16    17 ar  
    36    16    19 1   
    37    17    18 ar  
    38    19    20 1   
    39    20    21 ar  
    40    20    30 ar  
    41    21    22 ar  
    42    21    46 1   
    43    22    23 ar  
    44    23    24 1   
    45    23    29 ar  
    46    24    25 1   
    47    24    47 1   
    48    24    52 1   
    49    25    26 2   
    50    25    48 1   
    51    26    27 1   
    52    26    49 1   
    53    27    28 1   
    54    27    29 1   
    55    28    50 1   
    56    29    30 ar  
    57    30    51 1   
@<TRIPOS>SUBSTRUCTURE
     1 HTT         1 TEMP              0 ****  ****    0 ROOT
