@<TRIPOS>MOLECULE
molecule
   59    63     1     0     0
SMALL
bcc


@<TRIPOS>ATOM
      1 C4           0.0000     0.0000     0.0000 ca         1 HTV      -0.119500
      2 C7          -0.7340     0.0140     3.6870 cp         1 HTV      -0.067000
      3 C6           0.0050     0.0080     2.4010 cp         1 HTV      -0.028000
      4 C9          -1.1100    -0.8930     5.8800 ca         1 HTV      -0.055800
      5 C13         -1.9920    -1.2050     7.9540 cc         1 HTV      -0.045100
      6 C20          1.3520    -6.7230     7.9360 c3         1 HTV       0.040100
      7 C21          0.9650    -7.7540     6.9070 c          1 HTV       0.902600
      8 C8          -0.4130    -0.9070     4.6770 ca         1 HTV      -0.034000
      9 C18          1.5910    -6.2630    10.3780 c3         1 HTV       0.100100
     10 C16          0.7640    -4.5490     8.7620 c3         1 HTV       0.351900
     11 C19          1.2540    -7.3350     9.3350 c3         1 HTV       0.126100
     12 C1           1.3980     0.0020     2.3940 ca         1 HTV      -0.108500
     13 C2           2.0810     0.0000     1.1950 ca         1 HTV      -0.119500
     14 C3           1.3840     0.0000     0.0000 ca         1 HTV      -0.099300
     15 C5          -0.6920     0.0070     1.1940 ca         1 HTV      -0.108500
     16 C10         -2.1330     0.0450     6.0940 ca         1 HTV      -0.047200
     17 C11         -2.4420     0.9670     5.0960 ca         1 HTV      -0.146000
     18 C12         -1.7510     0.9510     3.9060 ca         1 HTV       0.055400
     19 Cl1         -2.1420     2.1010     2.6670 cl         1 HTV      -0.118400
     20 N1          -2.6400    -0.1760     7.3580 na         1 HTV      -0.174400
     21 C14         -1.0380    -1.6980     7.1130 cd         1 HTV      -0.181400
     22 C15         -0.1210    -2.8120     7.3820 c          1 HTV       0.676300
     23 O1           0.6870    -3.1530     6.5390 o          1 HTV      -0.518000
     24 O2          -0.1730    -3.4580     8.5650 os         1 HTV      -0.427900
     25 C17          0.6420    -5.0740    10.1950 c3         1 HTV       0.111100
     26 O3           0.4680    -5.6030     7.8440 os         1 HTV      -0.387600
     27 O4           1.7200    -8.8520     6.7400 o          1 HTV      -0.815800
     28 O5          -0.0240    -7.5940     6.2330 o          1 HTV      -0.815800
     29 O6           2.1790    -8.4180     9.4490 oh         1 HTV      -0.569800
     30 O7           1.4310    -6.8060    11.6890 oh         1 HTV      -0.614800
     31 O8           0.9930    -4.0380    11.1140 oh         1 HTV      -0.611800
     32 C22          2.1340    -0.0010    -1.3070 cy         1 HTV       0.177100
     33 C23          1.3830     0.7030    -2.4490 cy         1 HTV      -0.104400
     34 C24          1.8830    -0.4240    -3.3680 cy         1 HTV      -0.106400
     35 C25          1.9720    -1.3030    -2.1090 cy         1 HTV      -0.104400
     36 O9           3.4910     0.4220    -1.1680 oh         1 HTV      -0.583800
     37 H1          -0.5410    -0.0000    -0.9390 ha         1 HTV       0.135500
     38 H2          -2.2000    -1.5790     8.9490 h4         1 HTV       0.184000
     39 H4           0.4470    -1.5540     4.5560 ha         1 HTV       0.178000
     40 H5           2.6130    -5.9340    10.2390 h1         1 HTV       0.052700
     41 H6           1.7750    -4.1980     8.5930 h2         1 HTV       0.052700
     42 H7           0.2460    -7.6950     9.5010 h1         1 HTV       0.053700
     43 H8           1.9450     0.0020     3.3290 ha         1 HTV       0.139000
     44 H9           3.1640    -0.0020     1.1900 ha         1 HTV       0.135500
     45 H10         -1.7750     0.0070     1.1940 ha         1 HTV       0.139000
     46 H11         -3.2270     1.6960     5.2560 ha         1 HTV       0.133000
     47 H12         -3.3830     0.3500     7.7750 hn         1 HTV       0.294700
     48 H13         -0.3770    -5.3950    10.3760 h1         1 HTV       0.060700
     49 H15          1.7510    -9.1570     9.8500 ho         1 HTV       0.399000
     50 H16          2.2580    -6.7680    12.1390 ho         1 HTV       0.400000
     51 H17          0.3520    -4.0000    11.8050 ho         1 HTV       0.400000
     52 H18          1.8010     1.6700    -2.6990 hc         1 HTV       0.064450
     53 H19          0.3070     0.6960    -2.3170 hc         1 HTV       0.064450
     54 H20          1.1310    -0.7640    -4.0690 hc         1 HTV       0.053700
     55 H21          2.8500    -0.2150    -3.8080 hc         1 HTV       0.053700
     56 H22          2.8580    -1.9260    -2.0890 hc         1 HTV       0.064450
     57 H23          1.0480    -1.8240    -1.8900 hc         1 HTV       0.064450
     58 H24          3.5540     1.3440    -1.3560 ho         1 HTV       0.403000
     59 H3           2.3680    -6.3930     7.7590 h1         1 HTV       0.046700
@<TRIPOS>BOND
     1    28     7 1
     2    27     7 1
     3     7     6 1
     4     6    26 1
     5     6    11 1
     6    26    10 1
     7    35    34 1
     8    35    32 1
     9    12    13 ar
    10    12     3 ar
    11    13    14 ar
    12    29    11 1
    13    11     9 1
    14     5    20 1
    15     5    21 2
    16    20    16 1
    17    24    10 1
    18    24    22 1
    19    21     4 1
    20    21    22 1
    21    16     4 ar
    22    16    17 ar
    23    10    25 1
    24     4     8 ar
    25    22    23 2
    26    17    18 ar
    27    34    33 1
    28     8     2 ar
    29    18     2 ar
    30    18    19 1
    31     2     3 1
    32     3    15 ar
    33    14    32 1
    34    14     1 ar
    35    32    33 1
    36    32    36 1
    37     9    25 1
    38     9    30 1
    39    25    31 1
    40    15     1 ar
    41     1    37 1
    42     5    38 1
    43     6    59 1
    44     8    39 1
    45     9    40 1
    46    10    41 1
    47    11    42 1
    48    12    43 1
    49    13    44 1
    50    15    45 1
    51    17    46 1
    52    20    47 1
    53    25    48 1
    54    29    49 1
    55    30    50 1
    56    31    51 1
    57    33    52 1
    58    33    53 1
    59    34    54 1
    60    34    55 1
    61    35    56 1
    62    35    57 1
    63    36    58 1
@<TRIPOS>SUBSTRUCTURE
     1 HTV         1 TEMP              0 ****  ****    0 ROOT
