@<TRIPOS>MOLECULE
molecule
   22    21     1     0     0
SMALL
bcc


@<TRIPOS>ATOM
      1 C1           0.0000     0.0000     0.0000 c3         1 HTX      -0.196100
      2 C2           1.5070     0.0000     0.0000 c          1 HTX       0.560100
      3 O2           2.1120     0.0000     1.0460 o          1 HTX      -0.525100
      4 C3           2.2600    -0.0000    -1.3050 c3         1 HTX      -0.184400
      5 C5           3.7650     0.0000    -1.0270 c3         1 HTX      -0.072400
      6 C11          4.5300    -0.0000    -2.3520 c3         1 HTX      -0.083400
      7 C12          6.0340     0.0000    -2.0720 c3         1 HTX      -0.082400
      8 C13          6.7980    -0.0000    -3.3980 c3         1 HTX      -0.092100
      9 H1          -0.3610    -0.8850    -0.5110 hc         1 HTX       0.060367
     10 H1A         -0.3610     0.8850    -0.5110 hc         1 HTX       0.060367
     11 H1B         -0.3610    -0.0000     1.0210 hc         1 HTX       0.060367
     12 H3           1.9980     0.8840    -1.8730 hc         1 HTX       0.063700
     13 H3A          1.9980    -0.8840    -1.8730 hc         1 HTX       0.063700
     14 H5           4.0270     0.8840    -0.4590 hc         1 HTX       0.054700
     15 H5A          4.0270    -0.8840    -0.4590 hc         1 HTX       0.054700
     16 H11          4.2680     0.8840    -2.9200 hc         1 HTX       0.038700
     17 H11A         4.2680    -0.8840    -2.9200 hc         1 HTX       0.038700
     18 H12          6.2950    -0.8850    -1.5040 hc         1 HTX       0.042700
     19 H12A         6.2950     0.8850    -1.5040 hc         1 HTX       0.042700
     20 H13          7.8630    -0.0000    -3.2000 hc         1 HTX       0.033033
     21 H13A         6.5360     0.8850    -3.9660 hc         1 HTX       0.033033
     22 H13B         6.5360    -0.8850    -3.9660 hc         1 HTX       0.033033
@<TRIPOS>BOND
     1     1     2 1
     2     2     3 2
     3     2     4 1
     4     4     5 1
     5     5     6 1
     6     6     7 1
     7     7     8 1
     8     1     9 1
     9     1    10 1
    10     1    11 1
    11     4    12 1
    12     4    13 1
    13     5    14 1
    14     5    15 1
    15     6    16 1
    16     6    17 1
    17     7    18 1
    18     7    19 1
    19     8    20 1
    20     8    21 1
    21     8    22 1
@<TRIPOS>SUBSTRUCTURE
     1 HTX         1 TEMP              0 ****  ****    0 ROOT
