@<TRIPOS>MOLECULE
HTX
   22    21     1     0     0
SMALL
bcc


@<TRIPOS>ATOM
      1 C1          0.0320    0.0120   -0.0730 c3        1 HTX     -0.205100
      2 C2          1.5200    0.0020    0.0840 c         1 HTX      0.563100
      3 O2          2.0630   -0.0020    1.1930 o         1 HTX     -0.530100
      4 C3          2.2880   -0.0020   -1.2070 c3        1 HTX     -0.182400
      5 C5          3.7860    0.0000   -0.9980 c3        1 HTX     -0.075400
      6 C11         4.5230   -0.0040   -2.3200 c3        1 HTX     -0.078400
      7 C12         6.0220   -0.0030   -2.1110 c3        1 HTX     -0.079400
      8 C13         6.7630   -0.0070   -3.4230 c3        1 HTX     -0.093100
      9 H1         -0.4720    0.0060    0.9240 hc        1 HTX      0.062700
     10 H1A        -0.2930   -0.8880   -0.6480 hc        1 HTX      0.062700
     11 H1B        -0.2830    0.9260   -0.6320 hc        1 HTX      0.062700
     12 H3          1.9850   -0.9080   -1.7960 hc        1 HTX      0.063700
     13 H3A         1.9830    0.9000   -1.8030 hc        1 HTX      0.063700
     14 H5          4.0770    0.9030   -0.3990 hc        1 HTX      0.054700
     15 H5A         4.0790   -0.8980   -0.3930 hc        1 HTX      0.054700
     16 H11         4.2270    0.8960   -2.9200 hc        1 HTX      0.037700
     17 H11A        4.2280   -0.9090   -2.9140 hc        1 HTX      0.037700
     18 H12         6.3150    0.9010   -1.5140 hc        1 HTX      0.041700
     19 H12A        6.3160   -0.9040   -1.5090 hc        1 HTX      0.041700
     20 H13         7.8660   -0.0060   -3.2460 hc        1 HTX      0.032367
     21 H13A        6.5020    0.8970   -4.0260 hc        1 HTX      0.032367
     22 H13B        6.5030   -0.9130   -4.0210 hc        1 HTX      0.032367
@<TRIPOS>BOND
     1    1    2 1   
     2    1    9 1   
     3    1   10 1   
     4    1   11 1   
     5    2    3 2   
     6    2    4 1   
     7    4    5 1   
     8    4   12 1   
     9    4   13 1   
    10    5    6 1   
    11    5   14 1   
    12    5   15 1   
    13    6    7 1   
    14    6   16 1   
    15    6   17 1   
    16    7    8 1   
    17    7   18 1   
    18    7   19 1   
    19    8   20 1   
    20    8   21 1   
    21    8   22 1   
@<TRIPOS>SUBSTRUCTURE
     1 HTX         1 TEMP              0 ****  ****    0 ROOT
