@<TRIPOS>MOLECULE
molecule
   86    89     1     0     0
SMALL
bcc


@<TRIPOS>ATOM
      1 C1           0.0000     0.0000     0.0000 c          1 HU1       0.758100
      2 O2           1.2150     0.0000     0.0000 o          1 HU1      -0.622000
      3 O3          -0.6730     0.0000     1.1660 os         1 HU1      -0.430900
      4 C4           0.1180    -0.0060     2.3840 c3         1 HU1       0.176800
      5 C5           1.0060     1.2390     2.4220 c3         1 HU1      -0.105767
      6 C6          -0.8140    -0.0060     3.5980 c3         1 HU1      -0.105767
      7 C7           0.9950    -1.2590     2.4150 c3         1 HU1      -0.105767
      8 N8          -0.6740     0.0050    -1.1670 ns         1 HU1      -0.567900
      9 C9           0.0590     0.0050    -2.4360 c3         1 HU1       0.058700
     10 C10          0.4150    -1.4320    -2.8180 c3         1 HU1      -0.087700
     11 C11          1.1820    -1.4320    -4.1420 c3         1 HU1      -0.077400
     12 C12          1.2880    -2.0490    -1.7230 c3         1 HU1      -0.077400
     13 C13          1.5400    -2.8700    -4.5250 c3         1 HU1      -0.071900
     14 C14          1.6460    -3.4860    -2.1060 c3         1 HU1      -0.071900
     15 C15          2.4130    -3.4870    -3.4290 c3         1 HU1      -0.082400
     16 C16         -0.8030     0.6130    -3.5130 c          1 HU1       0.682100
     17 O17         -2.0060     0.4600    -3.4850 o          1 HU1      -0.605100
     18 N18         -0.2370     1.3250    -4.5070 n          1 HU1      -0.497800
     19 C19          1.2060     1.5400    -4.7630 c3         1 HU1       0.108000
     20 C20         -0.9170     2.0660    -5.5950 c3         1 HU1       0.006700
     21 C21         -0.0960     3.3640    -5.7540 cx         1 HU1      -0.427700
     22 C22          1.3080     3.0160    -5.2040 cx         1 HU1      -0.005700
     23 C23          0.4230     4.0490    -4.4880 cx         1 HU1      -0.095000
     24 C24          0.8280     5.5200    -4.5970 c3         1 HU1      -0.063100
     25 C25         -0.2030     3.6340    -3.1550 c3         1 HU1      -0.063100
     26 C26         -0.8890     1.2670    -6.8730 c          1 HU1       0.694100
     27 O27         -0.0930     0.3610    -7.0030 o          1 HU1      -0.605100
     28 N28         -1.7470     1.5590    -7.8690 ns         1 HU1      -0.561900
     29 C29         -1.7200     0.7820    -9.1110 c3         1 HU1       0.040700
     30 C30         -3.0920     0.8490    -9.7850 c3         1 HU1      -0.064400
     31 C31         -4.1300     0.1580    -8.8980 cy         1 HU1      -0.124700
     32 C32         -4.7630     1.0900    -7.8500 cy         1 HU1      -0.107400
     33 C33         -5.5230     0.0630    -9.5410 cy         1 HU1      -0.107400
     34 C34         -6.1000     0.3920    -8.1540 cy         1 HU1      -0.069400
     35 C36         -0.6770     1.3530   -10.0370 c          1 HU1       0.481100
     36 O37         -0.6740    -0.5400   -11.4240 o          1 HU1      -0.362100
     37 N38          0.7210     1.0720   -12.0410 nz         1 HU1      -0.684400
     38 C39         -0.2130     0.5620   -11.2130 c          1 HU1       0.383100
     39 H51          0.4780     2.0730     1.9750 hc         1 HU1       0.051367
     40 H52          1.2520     1.4770     3.4500 hc         1 HU1       0.051367
     41 H53          1.9170     1.0490     1.8670 hc         1 HU1       0.051367
     42 H61         -1.4450    -0.8860     3.5690 hc         1 HU1       0.051367
     43 H62         -1.4320     0.8830     3.5770 hc         1 HU1       0.051367
     44 H63         -0.2230    -0.0140     4.5060 hc         1 HU1       0.051367
     45 H71          0.4510    -2.0910     1.9840 hc         1 HU1       0.051367
     46 H72          1.8970    -1.0830     1.8430 hc         1 HU1       0.051367
     47 H73          1.2560    -1.4920     3.4410 hc         1 HU1       0.051367
     48 HN8         -1.6750     0.0430    -1.1670 hn         1 HU1       0.344500
     49 H9           0.9660     0.5870    -2.3280 h1         1 HU1       0.081700
     50 H10         -0.6100    -1.7790    -2.8620 hc         1 HU1       0.064700
     51 H111         2.0100    -0.8620    -3.7380 hc         1 HU1       0.055950
     52 H112         0.6490    -0.9050    -4.9230 hc         1 HU1       0.055950
     53 H121         2.1960    -1.4680    -1.6170 hc         1 HU1       0.055950
     54 H122         0.7430    -2.0520    -0.7870 hc         1 HU1       0.055950
     55 H131         0.6320    -3.4500    -4.6310 hc         1 HU1       0.043200
     56 H132         2.0850    -2.8670    -5.4610 hc         1 HU1       0.043200
     57 H141         2.2660    -3.9210    -1.3310 hc         1 HU1       0.043200
     58 H142         0.7370    -4.0660    -2.2170 hc         1 HU1       0.043200
     59 H151         2.6630    -4.5050    -3.7000 hc         1 HU1       0.043200
     60 H152         3.3190    -2.9030    -3.3200 hc         1 HU1       0.043200
     61 H191         1.5480     0.8860    -5.5570 h1         1 HU1       0.082700
     62 H192         1.7770     1.3770    -3.8580 h1         1 HU1       0.082700
     63 H20         -1.9360     2.2990    -5.3100 h1         1 HU1       0.087700
     64 H21         -1.1150     3.4380    -5.3920 hc         1 HU1       0.286700
     65 H22          2.0950     3.3480    -5.8700 hc         1 HU1       0.113700
     66 H241        -0.0290     6.1470    -4.3790 hc         1 HU1       0.048700
     67 H242         1.6190     5.7300    -3.8880 hc         1 HU1       0.048700
     68 H243         1.1790     5.7240    -5.6010 hc         1 HU1       0.048700
     69 H251         0.4620     2.9500    -2.6410 hc         1 HU1       0.048700
     70 H252        -1.1520     3.1460    -3.3380 hc         1 HU1       0.048700
     71 H253        -0.3610     4.5130    -2.5410 hc         1 HU1       0.048700
     72 HN28        -2.3730     2.3340    -7.7780 hn         1 HU1       0.340500
     73 H29         -1.4780    -0.2500    -8.8860 h1         1 HU1       0.122700
     74 H301        -3.1220     1.9320    -9.7850 hc         1 HU1       0.053700
     75 H302        -3.0680     0.4420   -10.7880 hc         1 HU1       0.053700
     76 H31         -3.7990    -0.7830    -8.4760 hc         1 HU1       0.084700
     77 H321        -4.1700     0.4840    -7.1760 hc         1 HU1       0.066950
     78 H322        -4.5820     2.1430    -8.0290 hc         1 HU1       0.066950
     79 H331        -5.7070     0.8410   -10.2720 hc         1 HU1       0.066950
     80 H332        -5.7680    -0.9380    -9.8750 hc         1 HU1       0.066950
     81 H341        -6.9370     1.0780    -8.1950 hc         1 HU1       0.068700
     82 H342        -6.2670    -0.4880    -7.5440 hc         1 HU1       0.068700
     83 H381         0.6100     2.0650   -12.0980 hn         1 HU1       0.483467
     84 H382         0.6130     0.6720   -12.9520 hn         1 HU1       0.483467
     85 O35         -0.2180     2.4490    -9.8260 o          1 HU1      -0.431100
     86 H383         1.6330     0.8580   -11.6890 hn         1 HU1       0.483467
@<TRIPOS>BOND
     1     1     8 1
     2     1     3 1
     3     1     2 2
     4     3     4 1
     5     4     5 1
     6     4     6 1
     7     4     7 1
     8     5    39 1
     9     5    40 1
    10     5    41 1
    11     6    42 1
    12     6    43 1
    13     6    44 1
    14     7    45 1
    15     7    46 1
    16     7    47 1
    17     8     9 1
    18     8    48 1
    19     9    10 1
    20     9    16 1
    21     9    49 1
    22    10    12 1
    23    10    11 1
    24    10    50 1
    25    11    13 1
    26    11    51 1
    27    11    52 1
    28    12    14 1
    29    12    53 1
    30    12    54 1
    31    13    15 1
    32    13    55 1
    33    13    56 1
    34    14    15 1
    35    14    57 1
    36    14    58 1
    37    15    59 1
    38    15    60 1
    39    16    17 2
    40    16    18 1
    41    18    19 1
    42    18    20 1
    43    19    22 1
    44    19    61 1
    45    19    62 1
    46    20    26 1
    47    20    21 1
    48    20    63 1
    49    21    22 1
    50    21    23 1
    51    21    64 1
    52    22    23 1
    53    22    65 1
    54    23    25 1
    55    23    24 1
    56    24    66 1
    57    24    67 1
    58    24    68 1
    59    25    69 1
    60    25    70 1
    61    25    71 1
    62    26    27 2
    63    26    28 1
    64    28    29 1
    65    28    72 1
    66    29    30 1
    67    29    35 1
    68    29    73 1
    69    30    31 1
    70    30    74 1
    71    30    75 1
    72    31    33 1
    73    31    32 1
    74    31    76 1
    75    32    34 1
    76    32    77 1
    77    32    78 1
    78    33    34 1
    79    33    79 1
    80    33    80 1
    81    34    81 1
    82    34    82 1
    83    85    35 2
    84    35    38 1
    85    36    38 2
    86    37    38 1
    87    37    83 1
    88    37    84 1
    89    86    37 1
@<TRIPOS>SUBSTRUCTURE
     1 HU1         1 TEMP              0 ****  ****    0 ROOT
