@<TRIPOS>MOLECULE
HU2
   96    98     1     0     0
SMALL
bcc


@<TRIPOS>ATOM
      1 C1           0.0000     0.0000     0.0000 c2         1 HU2       0.226000
      2 C2           1.5070     0.0000     0.0000 c3         1 HU2      -0.127000
      3 C3           2.0170     0.0000     1.4420 DU         1 HU2      -0.121000
      4 C4           3.5190     0.1130     1.4440 c2         1 HU2      -0.228000
      5 C5           4.1040     1.0660     2.1280 c2         1 HU2      -0.216000
      6 C6           5.6070     1.1790     2.1290 DU         1 HU2      -0.110000
      7 C7           6.0130     2.5850     1.6840 c3         1 HU2      -0.083000
      8 C8           5.5290     3.6070     2.7150 c3         1 HU2      -0.114500
      9 C9           7.5360     2.6630     1.5650 c3         1 HU2      -0.114500
     10 C10          2.0170    -1.2500    -0.7210 c3         1 HU2      -0.086000
     11 C11          1.3860    -2.4940    -0.0930 c3         1 HU2      -0.130000
     12 C12          1.6360    -1.1760    -2.2010 c3         1 HU2      -0.130000
     13 O13         -0.6060    -0.3660     0.9840 o          1 HU2      -0.418000
     14 N14         -0.6740     0.4110    -1.0920 ns         1 HU2       0.018000
     15 C15         -2.1330     0.5320    -1.0510 c3         1 HU2      -0.096000
     16 C16         -2.5150     1.8990    -0.4810 c3         1 HU2      -0.118000
     17 C17         -2.0600     1.9900     0.9760 c3         1 HU2      -0.105000
     18 C18         -2.3290     3.3980     1.5090 c3         1 HU2      -0.114500
     19 C19         -2.8320     0.9710     1.8160 c3         1 HU2      -0.114500
     20 C20         -2.6880     0.3950    -2.4450 c2         1 HU2       0.213000
     21 O21         -1.9390     0.2150    -3.3820 o          1 HU2      -0.422000
     22 N22         -4.0180     0.4750    -2.6520 ns         1 HU2       0.020000
     23 C23         -4.5580     0.3420    -4.0070 c3         1 HU2      -0.097000
     24 C24         -4.7420    -1.1400    -4.3400 c3         1 HU2      -0.113000
     25 C25         -3.3760    -1.8270    -4.3800 c3         1 HU2      -0.122000
     26 C26         -3.5600    -3.3100    -4.7120 c3         1 HU2      -0.111000
     27 C28         -5.8890     1.0440    -4.0880 c2         1 HU2       0.256000
     28 O29         -5.9090     1.0310    -6.4340 o          1 HU2      -0.418000
     29 N30         -7.6820     1.9770    -5.4910 ns         1 HU2       0.080000
     30 C31         -8.2730     2.2760    -6.7970 c3         1 HU2      -0.105000
     31 C32         -9.5930     2.9760    -6.6020 c2         1 HU2       0.200000
     32 O33        -10.0000     3.2020    -5.4820 o          1 HU2      -0.426000
     33 C34         -6.4910     1.3480    -5.4180 c2         1 HU2       0.157000
     34 N35        -10.3220     3.3500    -7.6720 ns         1 HU2       0.074000
     35 C36        -11.6050     4.0300    -7.4830 c3         1 HU2      -0.091000
     36 C37        -11.9170     4.8620    -8.7000 ca         1 HU2      -0.022000
     37 C38        -12.4810     6.1150    -8.5540 ca         1 HU2      -0.093000
     38 C39        -11.6350     4.3740    -9.9620 ca         1 HU2      -0.093000
     39 C40        -12.7680     6.8790    -9.6710 ca         1 HU2      -0.110000
     40 C41        -11.9210     5.1370   -11.0780 ca         1 HU2      -0.110000
     41 C42        -12.4900     6.3890   -10.9320 ca         1 HU2      -0.131000
     42 C43        -12.6920     3.0050    -7.2820 c2         1 HU2       0.400000
     43 O44        -13.9600     3.4010    -7.0890 o          1 HU2      -0.612500
     44 O45        -12.4220     1.8280    -7.2960 o          1 HU2      -0.612500
     45 H2           1.8680     0.8840    -0.5110 hc         1 HU2       0.079000
     46 H31          1.5910     0.8410     1.9760 ha         1 HU2       0.098500
     47 H32          1.7240    -0.9220     1.9290 ha         1 HU2       0.098500
     48 H41A         2.8590     0.7390     0.8560 DU         1 HU2       0.198000
     49 H51          4.7640     0.4410     2.7170 DU         1 HU2       0.171000
     50 H61          5.9820     0.9940     3.1280 ha         1 HU2       0.062000
     51 H62          6.0240     0.4490     1.4460 ha         1 HU2       0.062000
     52 H7           5.5650     2.8020     0.7220 hc         1 HU2       0.070000
     53 H81          4.4500     3.6940     2.6590 hc         1 HU2       0.042000
     54 H82          5.8140     3.2810     3.7080 hc         1 HU2       0.042000
     55 H83          5.9790     4.5700     2.5070 hc         1 HU2       0.042000
     56 H91          7.8220     3.6540     1.2340 hc         1 HU2       0.042000
     57 H92          7.8810     1.9290     0.8480 hc         1 HU2       0.042000
     58 H93          7.9840     2.4620     2.5310 hc         1 HU2       0.042000
     59 H10          3.0950    -1.3060    -0.6280 hc         1 HU2       0.085000
     60 H111         1.6860    -3.3720    -0.6520 hc         1 HU2       0.051333
     61 H112         0.3060    -2.4030    -0.1170 hc         1 HU2       0.051333
     62 H113         1.7170    -2.5890     0.9330 hc         1 HU2       0.051333
     63 H121         0.6330    -1.5600    -2.3360 hc         1 HU2       0.051333
     64 H122         2.3310    -1.7690    -2.7830 hc         1 HU2       0.051333
     65 H123         1.6760    -0.1450    -2.5330 hc         1 HU2       0.051333
     66 HN14        -0.1740     0.6690    -1.9200 hn         1 HU2       0.118000
     67 H15         -2.5420    -0.2490    -0.4220 h1         1 HU2       0.120000
     68 H161        -3.5900     2.0230    -0.5320 hc         1 HU2       0.065000
     69 H162        -2.0340     2.6790    -1.0600 hc         1 HU2       0.065000
     70 H17         -0.9990     1.7780     1.0370 hc         1 HU2       0.080000
     71 H181        -2.0440     3.4500     2.5530 hc         1 HU2       0.045333
     72 H182        -1.7490     4.1160     0.9410 hc         1 HU2       0.045333
     73 H183        -3.3830     3.6270     1.4100 hc         1 HU2       0.045333
     74 H191        -2.8990     0.0350     1.2760 hc         1 HU2       0.045333
     75 H192        -2.3150     0.8100     2.7540 hc         1 HU2       0.045333
     76 H193        -3.8290     1.3470     2.0130 hc         1 HU2       0.045333
     77 HN22        -4.6390     0.5970    -1.8760 hn         1 HU2       0.111000
     78 H23         -3.8710     0.7880    -4.7150 h1         1 HU2       0.128000
     79 H241        -5.2240    -1.2370    -5.3050 hc         1 HU2       0.071000
     80 H242        -5.3590    -1.6070    -3.5810 hc         1 HU2       0.071000
     81 H251        -2.8950    -1.7310    -3.4140 hc         1 HU2       0.069000
     82 H252        -2.7600    -1.3610    -5.1380 hc         1 HU2       0.069000
     83 H261        -2.5910    -3.7910    -4.7680 hc         1 HU2       0.038000
     84 H262        -4.0670    -3.4070    -5.6650 hc         1 HU2       0.038000
     85 H263        -4.1540    -3.7830    -3.9390 hc         1 HU2       0.038000
     86 HN30        -8.1600     2.2400    -4.6520 hn         1 HU2       0.132000
     87 H311        -7.6040     2.9170    -7.3580 h1         1 HU2       0.076500
     88 H312        -8.4300     1.3530    -7.3420 h1         1 HU2       0.076500
     89 HN35        -9.9840     3.1670    -8.5960 hn         1 HU2       0.075000
     90 H36        -11.5490     4.6720    -6.6120 h1         1 HU2       0.100000
     91 H38        -12.6990     6.5000    -7.5650 ha         1 HU2       0.109500
     92 H39        -11.1890     3.3930   -10.0760 ha         1 HU2       0.109500
     93 H40        -13.2120     7.8610    -9.5570 ha         1 HU2       0.088500
     94 H41        -11.7010     4.7530   -12.0670 ha         1 HU2       0.088500
     95 H42        -12.7140     6.9870   -11.8070 ha         1 HU2       0.087000
     96 O27         -6.4680     1.3600    -3.0770 o          1 HU2      -0.303000
@<TRIPOS>BOND
     1     1     2 1   
     2     1    13 1   
     3     1    14 1   
     4     2     3 1   
     5     2    10 1   
     6     2    45 1   
     7     3     4 1   
     8     3    46 1   
     9     3    47 1   
    10     3    48 1   
    11     4     5 1   
    12     4    48 1   
    13     5     6 1   
    14     5    49 1   
    15     6     7 1   
    16     6    49 1   
    17     6    50 1   
    18     6    51 1   
    19     7     8 1   
    20     7     9 1   
    21     7    52 1   
    22     8    53 1   
    23     8    54 1   
    24     8    55 1   
    25     9    56 1   
    26     9    57 1   
    27     9    58 1   
    28    10    11 1   
    29    10    12 1   
    30    10    59 1   
    31    11    60 1   
    32    11    61 1   
    33    11    62 1   
    34    12    63 1   
    35    12    64 1   
    36    12    65 1   
    37    14    15 1   
    38    14    66 1   
    39    15    16 1   
    40    15    20 1   
    41    15    67 1   
    42    16    17 1   
    43    16    68 1   
    44    16    69 1   
    45    17    18 1   
    46    17    19 1   
    47    17    70 1   
    48    18    71 1   
    49    18    72 1   
    50    18    73 1   
    51    19    74 1   
    52    19    75 1   
    53    19    76 1   
    54    20    21 1   
    55    20    22 1   
    56    22    23 1   
    57    22    77 1   
    58    23    24 1   
    59    23    27 1   
    60    23    78 1   
    61    24    25 1   
    62    24    79 1   
    63    24    80 1   
    64    25    26 1   
    65    25    81 1   
    66    25    82 1   
    67    26    83 1   
    68    26    84 1   
    69    26    85 1   
    70    27    33 1   
    71    27    96 1   
    72    28    33 1   
    73    29    30 1   
    74    29    33 1   
    75    29    86 1   
    76    30    31 1   
    77    30    87 1   
    78    30    88 1   
    79    31    32 1   
    80    31    34 1   
    81    34    35 1   
    82    34    89 1   
    83    35    36 1   
    84    35    42 1   
    85    35    90 1   
    86    36    37 1   
    87    36    38 1   
    88    37    39 1   
    89    37    91 1   
    90    38    40 1   
    91    38    92 1   
    92    39    41 1   
    93    39    93 1   
    94    40    41 1   
    95    40    94 1   
    96    41    95 1   
    97    42    43 1   
    98    42    44 1   
@<TRIPOS>SUBSTRUCTURE
     1 HU2         1 TEMP              0 ****  ****    0 ROOT
