@<TRIPOS>MOLECULE
molecule
   96    96     1     0     0
SMALL
bcc


@<TRIPOS>ATOM
      1 C1           0.0000     0.0000     0.0000 c          1 HU2       0.667100
      2 C2           1.5070     0.0000     0.0000 c3         1 HU2      -0.134700
      3 C3           2.0170     0.0000     1.4420 c3         1 HU2      -0.032200
      4 C4           3.5190     0.1130     1.4440 c2         1 HU2      -0.180200
      5 C5           4.1040     1.0660     2.1280 c2         1 HU2      -0.176200
      6 C6           5.6070     1.1790     2.1290 c3         1 HU2      -0.042200
      7 C7           6.0130     2.5850     1.6840 c3         1 HU2      -0.073700
      8 C8           5.5290     3.6070     2.7150 c3         1 HU2      -0.088100
      9 C9           7.5360     2.6630     1.5650 c3         1 HU2      -0.088100
     10 C10          2.0170    -1.2500    -0.7210 c3         1 HU2      -0.070700
     11 C11          1.3860    -2.4940    -0.0930 c3         1 HU2      -0.095600
     12 C12          1.6360    -1.1760    -2.2010 c3         1 HU2      -0.095600
     13 O13         -0.6060    -0.3660     0.9840 o          1 HU2      -0.622100
     14 N14         -0.6740     0.4110    -1.0920 ns         1 HU2      -0.567900
     15 C15         -2.1330     0.5320    -1.0510 c3         1 HU2       0.037700
     16 C16         -2.5150     1.8990    -0.4810 c3         1 HU2      -0.090400
     17 C17         -2.0600     1.9900     0.9760 c3         1 HU2      -0.073700
     18 C18         -2.3290     3.3980     1.5090 c3         1 HU2      -0.086600
     19 C19         -2.8320     0.9710     1.8160 c3         1 HU2      -0.086600
     20 C20         -2.6880     0.3950    -2.4450 c          1 HU2       0.654100
     21 O21         -1.9390     0.2150    -3.3820 o          1 HU2      -0.620100
     22 N22         -4.0180     0.4750    -2.6520 ns         1 HU2      -0.571900
     23 C23         -4.5580     0.3420    -4.0070 c3         1 HU2       0.032700
     24 C24         -4.7420    -1.1400    -4.3400 c3         1 HU2      -0.087400
     25 C25         -3.3760    -1.8270    -4.3800 c3         1 HU2      -0.077400
     26 C26         -3.5600    -3.3100    -4.7120 c3         1 HU2      -0.094100
     27 C28         -5.8890     1.0440    -4.0880 c          1 HU2       0.497100
     28 O29         -5.9090     1.0310    -6.4340 o          1 HU2      -0.608100
     29 N30         -7.6820     1.9770    -5.4910 ns         1 HU2      -0.531900
     30 C31         -8.2730     2.2760    -6.7970 c3         1 HU2       0.028000
     31 C32         -9.5930     2.9760    -6.6020 c          1 HU2       0.653100
     32 O33        -10.0000     3.2020    -5.4820 o          1 HU2      -0.621100
     33 C34         -6.4910     1.3480    -5.4180 c          1 HU2       0.564100
     34 N35        -10.3220     3.3500    -7.6720 ns         1 HU2      -0.537900
     35 C36        -11.6050     4.0300    -7.4830 c3         1 HU2       0.042000
     36 C37        -11.9170     4.8620    -8.7000 ca         1 HU2      -0.031300
     37 C38        -12.4810     6.1150    -8.5540 ca         1 HU2      -0.117000
     38 C39        -11.6350     4.3740    -9.9620 ca         1 HU2      -0.117000
     39 C40        -12.7680     6.8790    -9.6710 ca         1 HU2      -0.135500
     40 C41        -11.9210     5.1370   -11.0780 ca         1 HU2      -0.135500
     41 C42        -12.4900     6.3890   -10.9320 ca         1 HU2      -0.153000
     42 C43        -12.6920     3.0050    -7.2820 c          1 HU2       0.891600
     43 O44        -13.9600     3.4010    -7.0890 o          1 HU2      -0.826300
     44 O45        -12.4220     1.8280    -7.2960 o          1 HU2      -0.826300
     45 H2           1.8690     0.8840    -0.5110 hc         1 HU2       0.062700
     46 H31          1.5910     0.8410     1.9760 hc         1 HU2       0.063200
     47 H32          1.7240    -0.9230     1.9290 hc         1 HU2       0.063200
     48 H41A         4.1160    -0.5940     0.8800 ha         1 HU2       0.123000
     49 H51          3.5070     1.7730     2.6910 ha         1 HU2       0.127000
     50 H61          6.0240     0.4490     1.4460 hc         1 HU2       0.045200
     51 H62          5.9820     0.9940     3.1280 hc         1 HU2       0.045200
     52 H7           5.5650     2.8020     0.7220 hc         1 HU2       0.052700
     53 H81          5.6100     3.1840     3.7090 hc         1 HU2       0.032867
     54 H82          4.4950     3.8610     2.5140 hc         1 HU2       0.032867
     55 H83          6.1390     4.5000     2.6520 hc         1 HU2       0.032867
     56 H91          7.8220     3.6500     1.2210 hc         1 HU2       0.032867
     57 H92          7.9840     2.4750     2.5340 hc         1 HU2       0.032867
     58 H93          7.8820     1.9200     0.8570 hc         1 HU2       0.032867
     59 H10          3.0950    -1.3060    -0.6280 hc         1 HU2       0.054700
     60 H111         1.7520    -3.3790    -0.6000 hc         1 HU2       0.040533
     61 H112         1.6500    -2.5430     0.9560 hc         1 HU2       0.040533
     62 H113         0.3080    -2.4410    -0.1930 hc         1 HU2       0.040533
     63 H121         0.6270    -1.5460    -2.3340 hc         1 HU2       0.040533
     64 H122         2.3230    -1.7810    -2.7810 hc         1 HU2       0.040533
     65 H123         1.6900    -0.1470    -2.5370 hc         1 HU2       0.040533
     66 HN14        -0.1740     0.6690    -1.9200 hn         1 HU2       0.336500
     67 H15         -2.5420    -0.2490    -0.4220 h1         1 HU2       0.099700
     68 H161        -2.0340     2.6780    -1.0600 hc         1 HU2       0.052200
     69 H162        -3.5900     2.0230    -0.5320 hc         1 HU2       0.052200
     70 H17         -0.9990     1.7780     1.0370 hc         1 HU2       0.059700
     71 H181        -1.7710     4.1190     0.9230 hc         1 HU2       0.034867
     72 H182        -3.3870     3.6160     1.4360 hc         1 HU2       0.034867
     73 H183        -2.0190     3.4580     2.5450 hc         1 HU2       0.034867
     74 H191        -2.4340     0.9580     2.8240 hc         1 HU2       0.034867
     75 H192        -2.7290    -0.0130     1.3750 hc         1 HU2       0.034867
     76 H193        -3.8790     1.2460     1.8450 hc         1 HU2       0.034867
     77 HN22        -4.6350     0.6380    -1.8810 hn         1 HU2       0.334500
     78 H23         -3.8710     0.7880    -4.7150 h1         1 HU2       0.111700
     79 H241        -5.3590    -1.6070    -3.5810 hc         1 HU2       0.059200
     80 H242        -5.2230    -1.2370    -5.3050 hc         1 HU2       0.059200
     81 H251        -2.8950    -1.7310    -3.4140 hc         1 HU2       0.053200
     82 H252        -2.7600    -1.3610    -5.1380 hc         1 HU2       0.053200
     83 H261        -2.5910    -3.7910    -4.7670 hc         1 HU2       0.030700
     84 H262        -4.1540    -3.7830    -3.9390 hc         1 HU2       0.030700
     85 H263        -4.0660    -3.4070    -5.6650 hc         1 HU2       0.030700
     86 HN30        -8.1620     2.2380    -4.6520 hn         1 HU2       0.359500
     87 H311        -8.4300     1.3530    -7.3420 h1         1 HU2       0.067200
     88 H312        -7.6040     2.9170    -7.3580 h1         1 HU2       0.067200
     89 HN35        -9.9880     3.1580    -8.5960 hn         1 HU2       0.303500
     90 H36        -11.5490     4.6720    -6.6120 h1         1 HU2       0.082700
     91 H38        -12.6990     6.5000    -7.5650 ha         1 HU2       0.132500
     92 H39        -11.1890     3.3930   -10.0760 ha         1 HU2       0.132500
     93 H40        -13.2120     7.8610    -9.5570 ha         1 HU2       0.112000
     94 H41        -11.7010     4.7530   -12.0670 ha         1 HU2       0.112000
     95 H42        -12.7140     6.9870   -11.8070 ha         1 HU2       0.108000
     96 O27         -6.4680     1.3600    -3.0770 o          1 HU2      -0.505100
@<TRIPOS>BOND
     1     1     2 1
     2     1    13 2
     3     1    14 1
     4     2    10 1
     5     2     3 1
     6     2    45 1
     7     3     4 1
     8     3    46 1
     9     3    47 1
    10     4     5 2
    11     4    48 1
    12     5     6 1
    13     5    49 1
    14     6     7 1
    15     6    50 1
    16     6    51 1
    17     7     8 1
    18     7     9 1
    19     7    52 1
    20     8    53 1
    21     8    54 1
    22     8    55 1
    23     9    56 1
    24     9    57 1
    25     9    58 1
    26    10    12 1
    27    10    11 1
    28    10    59 1
    29    11    60 1
    30    11    61 1
    31    11    62 1
    32    12    63 1
    33    12    64 1
    34    12    65 1
    35    14    15 1
    36    14    66 1
    37    15    20 1
    38    15    16 1
    39    15    67 1
    40    16    17 1
    41    16    68 1
    42    16    69 1
    43    17    19 1
    44    17    18 1
    45    17    70 1
    46    18    71 1
    47    18    72 1
    48    18    73 1
    49    19    74 1
    50    19    75 1
    51    19    76 1
    52    20    21 2
    53    20    22 1
    54    22    23 1
    55    22    77 1
    56    23    24 1
    57    23    27 1
    58    23    78 1
    59    24    25 1
    60    24    79 1
    61    24    80 1
    62    25    26 1
    63    25    81 1
    64    25    82 1
    65    26    83 1
    66    26    84 1
    67    26    85 1
    68    96    27 2
    69    27    33 1
    70    28    33 2
    71    29    30 1
    72    29    33 1
    73    29    86 1
    74    30    31 1
    75    30    87 1
    76    30    88 1
    77    31    32 2
    78    31    34 1
    79    34    35 1
    80    34    89 1
    81    35    36 1
    82    35    42 1
    83    35    90 1
    84    36    37 ar
    85    36    38 ar
    86    37    39 ar
    87    37    91 1
    88    38    40 ar
    89    38    92 1
    90    39    41 ar
    91    39    93 1
    92    40    41 ar
    93    40    94 1
    94    41    95 1
    95    42    44 1
    96    42    43 1
@<TRIPOS>SUBSTRUCTURE
     1 HU2         1 TEMP              0 ****  ****    0 ROOT
