@<TRIPOS>MOLECULE
molecule
   87    90     1     0     0
SMALL
bcc


@<TRIPOS>ATOM
      1 C1           0.0000     0.0000     0.0000 c          1 HU4       0.759100
      2 O2           1.2150     0.0000     0.0000 o          1 HU4      -0.614000
      3 O3          -0.6740     0.0000     1.1660 os         1 HU4      -0.431900
      4 C4           0.1170    -0.0060     2.3840 c3         1 HU4       0.176800
      5 C5          -0.8140    -0.0050     3.5960 c3         1 HU4      -0.105767
      6 C6           0.9950    -1.2600     2.4150 c3         1 HU4      -0.105767
      7 C7           1.0050     1.2390     2.4210 c3         1 HU4      -0.105767
      8 N8          -0.6750     0.0060    -1.1670 ns         1 HU4      -0.569900
      9 C9           0.0580     0.0060    -2.4360 c3         1 HU4       0.060700
     10 C10          0.4160    -1.4320    -2.8180 c3         1 HU4      -0.015700
     11 C11          1.1970    -1.4300    -4.1340 c3         1 HU4      -0.153400
     12 C12          1.2760    -2.0530    -1.7160 c3         1 HU4      -0.153400
     13 C13          1.5550    -2.8680    -4.5160 c3         1 HU4      -0.059400
     14 C14          1.6330    -3.4920    -2.0980 c3         1 HU4      -0.059400
     15 C15          2.4140    -3.4900    -3.4140 c3         1 HU4      -0.078400
     16 C16         -0.8030     0.6130    -3.5140 c          1 HU4       0.681100
     17 O17         -2.0070     0.4610    -3.4850 o          1 HU4      -0.613100
     18 N18         -0.2370     1.3230    -4.5090 n          1 HU4      -0.480800
     19 C19          1.2090     1.5240    -4.7500 c3         1 HU4       0.096000
     20 C20         -0.9310     2.0540    -5.5850 c3         1 HU4       0.054700
     21 C21          0.0020     3.1920    -6.0360 cy         1 HU4      -0.711700
     22 C22          1.3010     3.0020    -5.1990 cy         1 HU4       0.074100
     23 O23          0.6910     3.9040    -4.2550 oq         1 HU4      -0.371600
     24 C24         -0.1930     4.4940    -5.2410 cy         1 HU4       0.140800
     25 C25          0.3910     5.7300    -5.9280 c3         1 HU4      -0.118600
     26 C26         -1.6250     4.7070    -4.7450 c3         1 HU4      -0.118600
     27 C27         -1.2060     1.1270    -6.7400 c          1 HU4       0.695100
     28 O28         -0.5890     0.0890    -6.8440 o          1 HU4      -0.586100
     29 N29         -2.1380     1.4530    -7.6590 ns         1 HU4      -0.562900
     30 C30         -2.4040     0.5520    -8.7830 c3         1 HU4       0.044700
     31 C31         -3.8280     0.7810    -9.2930 c3         1 HU4      -0.065400
     32 C32         -4.8300     0.3820    -8.2070 cy         1 HU4      -0.124700
     33 C33         -6.2960     0.4600    -8.6640 cy         1 HU4      -0.106900
     34 C34         -5.1570     1.5190    -7.2250 cy         1 HU4      -0.106900
     35 C35         -6.6160     1.0340    -7.2730 cy         1 HU4      -0.069400
     36 C37         -1.4220     0.8270    -9.8920 c          1 HU4       0.477100
     37 O38         -1.9090    -1.1780   -11.0090 o          1 HU4      -0.362100
     38 N39         -0.3760     0.0910   -11.9920 nz         1 HU4      -0.683400
     39 C40         -1.2550    -0.1550   -11.0000 c          1 HU4       0.384100
     40 H51         -0.2240    -0.0150     4.5050 hc         1 HU4       0.051367
     41 H52         -1.4330     0.8840     3.5770 hc         1 HU4       0.051367
     42 H53         -1.4460    -0.8850     3.5670 hc         1 HU4       0.051367
     43 H61          1.2520    -1.4950     3.4410 hc         1 HU4       0.051367
     44 H62          1.9000    -1.0810     1.8480 hc         1 HU4       0.051367
     45 H63          0.4540    -2.0910     1.9790 hc         1 HU4       0.051367
     46 H71          0.4810     2.0700     1.9640 hc         1 HU4       0.051367
     47 H72          1.2410     1.4830     3.4500 hc         1 HU4       0.051367
     48 H73          1.9210     1.0460     1.8770 hc         1 HU4       0.051367
     49 HN8         -1.6750     0.0480    -1.1670 hn         1 HU4       0.341500
     50 H9           0.9660     0.5880    -2.3290 h1         1 HU4       0.101700
     51 H10         -0.6090    -1.7770    -2.8700 hc         1 HU4       0.039700
     52 H111         0.1930    -1.8350    -4.1220 hc         1 HU4       0.077950
     53 H112         1.1290    -0.6390    -4.8710 hc         1 HU4       0.077950
     54 H121         0.7210    -2.0560    -0.7850 hc         1 HU4       0.077950
     55 H122         2.1850    -1.4760    -1.6000 hc         1 HU4       0.077950
     56 H131         0.6470    -3.4460    -4.6340 hc         1 HU4       0.037200
     57 H132         2.1110    -2.8650    -5.4460 hc         1 HU4       0.037200
     58 H141         0.7240    -4.0680    -2.2200 hc         1 HU4       0.037200
     59 H142         2.2430    -3.9300    -1.3180 hc         1 HU4       0.037200
     60 H151         2.6650    -4.5080    -3.6840 hc         1 HU4       0.045200
     61 H152         3.3200    -2.9090    -3.2930 hc         1 HU4       0.045200
     62 H191         1.5580     0.8660    -5.5370 h1         1 HU4       0.089700
     63 H192         1.7720     1.3690    -3.8370 h1         1 HU4       0.089700
     64 H20         -1.8590     2.4680    -5.2080 h1         1 HU4       0.085700
     65 H21         -1.0090     3.2360    -5.6480 hc         1 HU4       0.409700
     66 H22          1.4820     3.1110    -6.2610 h1         1 HU4       0.252700
     67 H251         1.3360     5.2330    -6.1120 hc         1 HU4       0.064033
     68 H252        -0.1300     5.9790    -6.8440 hc         1 HU4       0.064033
     69 H253         0.4910     6.5710    -5.2520 hc         1 HU4       0.064033
     70 H261        -2.3140     4.5970    -5.5740 hc         1 HU4       0.064033
     71 H262        -1.7190     5.7010    -4.3270 hc         1 HU4       0.064033
     72 H263        -1.8570     3.9710    -3.9840 hc         1 HU4       0.064033
     73 HN29        -2.6100     2.3330    -7.6010 hn         1 HU4       0.335500
     74 H30         -2.3000    -0.4750    -8.4550 h1         1 HU4       0.122700
     75 H311        -3.6850     1.8460    -9.4320 hc         1 HU4       0.054200
     76 H312        -4.0060     0.2680   -10.2310 hc         1 HU4       0.054200
     77 H32         -4.5960    -0.5500    -7.7060 hc         1 HU4       0.086700
     78 H331        -6.2110    -0.6190    -8.6110 hc         1 HU4       0.065700
     79 H332        -6.4420     1.0070    -9.5870 hc         1 HU4       0.065700
     80 H341        -4.6980     1.3840    -6.2530 hc         1 HU4       0.065700
     81 H342        -5.0230     2.5030    -7.6560 hc         1 HU4       0.065700
     82 H351        -7.3320     1.8460    -7.3050 hc         1 HU4       0.070200
     83 H352        -6.8330     0.2680    -6.5380 hc         1 HU4       0.070200
     84 H391         0.4690     0.4620   -11.6050 hn         1 HU4       0.484133
     85 H392        -0.1750    -0.7600   -12.4790 hn         1 HU4       0.484133
     86 O36         -0.7710     1.8450    -9.8830 o          1 HU4      -0.429100
     87 H393        -0.7710     0.7540   -12.6300 hn         1 HU4       0.484133
@<TRIPOS>BOND
     1     1     8 1
     2     1     3 1
     3     1     2 2
     4     3     4 1
     5     4     7 1
     6     4     6 1
     7     4     5 1
     8     5    40 1
     9     5    41 1
    10     5    42 1
    11     6    43 1
    12     6    44 1
    13     6    45 1
    14     7    46 1
    15     7    47 1
    16     7    48 1
    17     8     9 1
    18     8    49 1
    19     9    10 1
    20     9    16 1
    21     9    50 1
    22    10    12 1
    23    10    11 1
    24    10    51 1
    25    11    13 1
    26    11    52 1
    27    11    53 1
    28    12    14 1
    29    12    54 1
    30    12    55 1
    31    13    15 1
    32    13    56 1
    33    13    57 1
    34    14    15 1
    35    14    58 1
    36    14    59 1
    37    15    60 1
    38    15    61 1
    39    16    17 2
    40    16    18 1
    41    18    19 1
    42    18    20 1
    43    19    22 1
    44    19    62 1
    45    19    63 1
    46    20    27 1
    47    20    21 1
    48    20    64 1
    49    21    22 1
    50    21    24 1
    51    21    65 1
    52    22    23 1
    53    22    66 1
    54    23    24 1
    55    24    26 1
    56    24    25 1
    57    25    67 1
    58    25    68 1
    59    25    69 1
    60    26    70 1
    61    26    71 1
    62    26    72 1
    63    27    28 2
    64    27    29 1
    65    29    30 1
    66    29    73 1
    67    30    31 1
    68    30    36 1
    69    30    74 1
    70    31    32 1
    71    31    75 1
    72    31    76 1
    73    32    33 1
    74    32    34 1
    75    32    77 1
    76    33    35 1
    77    33    78 1
    78    33    79 1
    79    34    35 1
    80    34    80 1
    81    34    81 1
    82    35    82 1
    83    35    83 1
    84    86    36 2
    85    36    39 1
    86    37    39 2
    87    38    39 1
    88    38    84 1
    89    38    85 1
    90    87    38 1
@<TRIPOS>SUBSTRUCTURE
     1 HU4         1 TEMP              0 ****  ****    0 ROOT
