@<TRIPOS>MOLECULE
molecule
   83    85     1     0     0
SMALL
bcc


@<TRIPOS>ATOM
      1 C1           0.0000     0.0000     0.0000 c          1 HU5       0.786100
      2 O2           1.2160     0.0000     0.0000 o          1 HU5      -0.668100
      3 N3          -0.6740     0.0000     1.1670 ns         1 HU5      -0.590900
      4 C4           0.0580    -0.0070     2.4360 c3         1 HU5       0.138400
      5 C5           0.9340    -1.2590     2.5140 c3         1 HU5      -0.101433
      6 C6           0.9430     1.2390     2.5210 c3         1 HU5      -0.101433
      7 C7          -0.9360    -0.0060     3.5990 c3         1 HU5      -0.101433
      8 N8          -0.6740     0.0050    -1.1670 ns         1 HU5      -0.596900
      9 C9           0.0590     0.0060    -2.4360 c3         1 HU5       0.079700
     10 C10          0.4170    -1.4310    -2.8190 c3         1 HU5      -0.089000
     11 C11          1.2370    -2.0680    -1.6950 c3         1 HU5      -0.095433
     12 C12         -0.8660    -2.2370    -3.0340 c3         1 HU5      -0.095433
     13 C13          1.2380    -1.4260    -4.1090 c3         1 HU5      -0.095433
     14 C14         -0.8020     0.6130    -3.5130 c          1 HU5       0.686100
     15 O15         -2.0110     0.5450    -3.4330 o          1 HU5      -0.611100
     16 N16         -0.2310     1.2300    -4.5660 n          1 HU5      -0.497800
     17 C17          1.2100     1.4860    -4.7970 c3         1 HU5       0.108000
     18 C18         -0.8990     1.8030    -5.7580 c3         1 HU5       0.004700
     19 C19         -0.1330     3.1130    -6.0430 cx         1 HU5      -0.429700
     20 C20          1.2620     2.9030    -5.4070 cx         1 HU5      -0.006700
     21 C21          0.3040     3.9670    -4.8510 cx         1 HU5      -0.094000
     22 C22          0.6450     5.4330    -5.1210 c3         1 HU5      -0.063600
     23 C23         -0.3550     3.6830    -3.5000 c3         1 HU5      -0.063600
     24 C24         -0.7850     0.8610    -6.9280 c          1 HU5       0.689100
     25 O25          0.0560    -0.0130    -6.9220 o          1 HU5      -0.611100
     26 N26         -1.6160     0.9900    -7.9810 ns         1 HU5      -0.563900
     27 C27         -1.5030     0.0750    -9.1190 c3         1 HU5       0.123700
     28 C28         -2.8500    -0.0080    -9.8420 c3         1 HU5      -0.215400
     29 C29         -3.8890    -0.6400    -8.9150 cy         1 HU5      -0.105700
     30 C30         -4.6050     0.3760    -8.0090 cy         1 HU5      -0.100400
     31 C31         -5.2510    -0.8800    -9.5880 cy         1 HU5      -0.100400
     32 C32         -5.8960    -0.4180    -8.2710 cy         1 HU5      -0.073400
     33 C34         -0.4520     0.5820   -10.0710 c          1 HU5       0.472100
     34 O35         -0.3080    -1.4580   -11.2200 o          1 HU5      -0.370100
     35 N36          1.0360     0.1370   -11.9780 nz         1 HU5      -0.682400
     36 C37          0.0950    -0.3170   -11.1280 c          1 HU5       0.383100
     37 HN3         -1.6740     0.0240     1.1670 hn         1 HU5       0.309500
     38 H51          1.8390    -1.1030     1.9400 hc         1 HU5       0.046367
     39 H52          0.3910    -2.1050     2.1090 hc         1 HU5       0.046367
     40 H53          1.1900    -1.4560     3.5470 hc         1 HU5       0.046367
     41 H61          0.4200     2.0830     2.0890 hc         1 HU5       0.046367
     42 H62          1.8630     1.0660     1.9740 hc         1 HU5       0.046367
     43 H63          1.1730     1.4480     3.5580 hc         1 HU5       0.046367
     44 H71         -0.3940    -0.0150     4.5370 hc         1 HU5       0.046367
     45 H72         -1.5530     0.8830     3.5470 hc         1 HU5       0.046367
     46 H73         -1.5640    -0.8860     3.5370 hc         1 HU5       0.046367
     47 HN8         -1.6740     0.0420    -1.1670 hn         1 HU5       0.329500
     48 H9           0.9660     0.5880    -2.3290 h1         1 HU5       0.087700
     49 H111         1.7050    -1.0920    -1.6680 hc         1 HU5       0.046367
     50 H112         1.8970    -2.8580    -2.0320 hc         1 HU5       0.046367
     51 H113         0.6560    -2.2970    -0.8090 hc         1 HU5       0.046367
     52 H121        -1.3570    -1.9000    -3.9380 hc         1 HU5       0.046367
     53 H122        -1.5280    -2.0930    -2.1880 hc         1 HU5       0.046367
     54 H123        -0.6210    -3.2880    -3.1260 hc         1 HU5       0.046367
     55 H131         1.6030    -2.4260    -4.3100 hc         1 HU5       0.046367
     56 H132         0.6150    -1.0970    -4.9320 hc         1 HU5       0.046367
     57 H133         2.0780    -0.7500    -4.0000 hc         1 HU5       0.046367
     58 H171         1.7520     1.4600    -3.8590 h1         1 HU5       0.082200
     59 H172         1.6140     0.7610    -5.4940 h1         1 HU5       0.082200
     60 H18         -1.9380     2.0170    -5.5380 h1         1 HU5       0.089700
     61 H19         -1.1680     3.1770    -5.7280 hc         1 HU5       0.287700
     62 H20          2.0590     3.1920    -6.0810 hc         1 HU5       0.112700
     63 H221         1.3810     5.7710    -4.4020 hc         1 HU5       0.049033
     64 H222         1.0470     5.5320    -6.1230 hc         1 HU5       0.049033
     65 H223        -0.2510     6.0350    -5.0310 hc         1 HU5       0.049033
     66 H231        -1.2680     3.1200    -3.6550 hc         1 HU5       0.049033
     67 H232        -0.5870     4.6190    -3.0070 hc         1 HU5       0.049033
     68 H233         0.3230     3.1070    -2.8810 hc         1 HU5       0.049033
     69 HN26        -2.2750     1.7420    -8.0080 hn         1 HU5       0.349500
     70 H27         -1.2230    -0.9100    -8.7640 h1         1 HU5       0.097700
     71 H281        -2.3270    -0.9130    -9.5590 hc         1 HU5       0.089700
     72 H282        -2.9270    -0.1090   -10.9180 hc         1 HU5       0.089700
     73 H29         -3.5330    -1.5060    -8.3710 hc         1 HU5       0.069700
     74 H301        -4.0130    -0.1160    -7.2470 hc         1 HU5       0.067700
     75 H302        -4.4650     1.4090    -8.3060 hc         1 HU5       0.067700
     76 H311        -5.4360    -1.9250    -9.8080 hc         1 HU5       0.067700
     77 H312        -5.4410    -0.2040   -10.4130 hc         1 HU5       0.067700
     78 H321        -6.0460    -1.2270    -7.5660 hc         1 HU5       0.068200
     79 H322        -6.7610     0.2160    -8.4220 hc         1 HU5       0.068200
     80 H361         1.8500     0.4050   -11.4630 hn         1 HU5       0.484800
     81 H362         0.6800     0.9290   -12.4770 hn         1 HU5       0.484800
     82 O33         -0.0510     1.7190    -9.9780 o          1 HU5      -0.416100
     83 H363         1.2750    -0.5860   -12.6280 hn         1 HU5       0.484800
@<TRIPOS>BOND
     1     1     8 1
     2     1     3 1
     3     1     2 2
     4     3     4 1
     5     3    37 1
     6     4     6 1
     7     4     5 1
     8     4     7 1
     9     5    38 1
    10     5    39 1
    11     5    40 1
    12     6    41 1
    13     6    42 1
    14     6    43 1
    15     7    44 1
    16     7    45 1
    17     7    46 1
    18     8     9 1
    19     8    47 1
    20     9    10 1
    21     9    14 1
    22     9    48 1
    23    10    12 1
    24    10    13 1
    25    10    11 1
    26    11    49 1
    27    11    50 1
    28    11    51 1
    29    12    52 1
    30    12    53 1
    31    12    54 1
    32    13    55 1
    33    13    56 1
    34    13    57 1
    35    14    15 2
    36    14    16 1
    37    16    17 1
    38    16    18 1
    39    17    20 1
    40    17    58 1
    41    17    59 1
    42    18    24 1
    43    18    19 1
    44    18    60 1
    45    19    20 1
    46    19    21 1
    47    19    61 1
    48    20    21 1
    49    20    62 1
    50    21    23 1
    51    21    22 1
    52    22    63 1
    53    22    64 1
    54    22    65 1
    55    23    66 1
    56    23    67 1
    57    23    68 1
    58    24    25 2
    59    24    26 1
    60    26    27 1
    61    26    69 1
    62    27    28 1
    63    27    33 1
    64    27    70 1
    65    28    29 1
    66    28    71 1
    67    28    72 1
    68    29    31 1
    69    29    30 1
    70    29    73 1
    71    30    32 1
    72    30    74 1
    73    30    75 1
    74    31    32 1
    75    31    76 1
    76    31    77 1
    77    32    78 1
    78    32    79 1
    79    82    33 2
    80    33    36 1
    81    34    36 2
    82    35    36 1
    83    35    80 1
    84    35    81 1
    85    83    35 1
@<TRIPOS>SUBSTRUCTURE
     1 HU5         1 TEMP              0 ****  ****    0 ROOT
