@<TRIPOS>MOLECULE
molecule
   59    62     1     0     0
SMALL
bcc


@<TRIPOS>ATOM
      1 N3           0.0000     0.0000     0.0000 na         1 HU7      -0.174400
      2 C4           7.4770     1.0480    -1.8740 ca         1 HU7      -0.356300
      3 N2           7.6360    -1.0930    -0.8850 nb         1 HU7      -0.845000
      4 C7           6.3460    -1.0920    -0.6010 ca         1 HU7       0.714600
      5 C6           5.5420     0.0010    -0.9430 cp         1 HU7      -0.231300
      6 C9           4.0940    -0.0010    -0.6240 cp         1 HU7      -0.040000
      7 C13          2.3300     0.0000     1.0180 ca         1 HU7      -0.150000
      8 C20         -2.1930    -0.0980    -7.6970 c3         1 HU7       0.106100
      9 C21         -1.5410     1.2120    -8.1510 c3         1 HU7       0.126100
     10 C18         -0.7410    -0.0220    -5.6690 c3         1 HU7       0.346900
     11 C16          0.5670    -0.0080    -2.1510 cc         1 HU7      -0.183400
     12 C19         -2.1820    -0.1570    -6.1670 c3         1 HU7       0.111100
     13 C3           8.2140    -0.0710    -1.5000 ca         1 HU7       0.741200
     14 C5           6.1240     1.0930    -1.5930 ca         1 HU7      -0.001000
     15 C10          3.1570     0.0030    -1.6500 ca         1 HU7      -0.040000
     16 C11          1.8010     0.0000    -1.3400 ca         1 HU7      -0.055800
     17 C12          1.3800     0.0000     0.0000 ca         1 HU7      -0.048200
     18 C14          3.6720    -0.0000     0.7100 ca         1 HU7       0.068400
     19 Cl1          4.8480    -0.0010     1.9870 cl         1 HU7      -0.117400
     20 C15         -0.4740    -0.0050    -1.2680 cd         1 HU7      -0.048100
     21 C17          0.4780    -0.0110    -3.6150 c          1 HU7       0.677300
     22 O2           1.4920    -0.0060    -4.2860 o          1 HU7      -0.518000
     23 O3          -0.7290    -0.0190    -4.2170 os         1 HU7      -0.430900
     24 C22         -0.1250     1.2940    -7.5770 c3         1 HU7       0.042100
     25 O4          -0.1840     1.2020    -6.1520 os         1 HU7      -0.387600
     26 C23          0.5020     2.6060    -7.9700 c          1 HU7       0.902600
     27 O5           0.7780     3.4220    -7.1230 o          1 HU7      -0.816300
     28 O6           0.7530     2.8690    -9.2630 o          1 HU7      -0.816300
     29 O7          -1.4810     1.2450    -9.5790 oh         1 HU7      -0.567800
     30 O9          -2.7220    -1.4070    -5.7330 oh         1 HU7      -0.610800
     31 H1          -0.5700     0.0030     0.8220 hn         1 HU7       0.292700
     32 H2           7.9590     1.8780    -2.3770 ha         1 HU7       0.140000
     33 H3           2.0130     0.0000     2.0530 ha         1 HU7       0.131000
     34 H4          -1.6330    -0.9360    -8.0940 h1         1 HU7       0.052700
     35 H5          -2.1250     2.0490    -7.7890 h1         1 HU7       0.053700
     36 H6           6.1100    -4.0180     0.8660 h1         1 HU7       0.040700
     37 H7           7.4670    -2.8910     1.0010 h1         1 HU7       0.040700
     38 H8           7.0920    -3.6420    -0.5570 h1         1 HU7       0.040700
     39 H9          -0.1530    -0.8540    -6.0380 h2         1 HU7       0.052700
     40 H10         -2.7780     0.6570    -5.7710 h1         1 HU7       0.060700
     41 H11          9.8380     1.2460    -3.3410 h1         1 HU7       0.035867
     42 H12         10.0800     1.9080    -1.7180 h1         1 HU7       0.035867
     43 H13         11.3080     0.8580    -2.4380 h1         1 HU7       0.035867
     44 H14         10.3200    -1.5280    -0.4220 h1         1 HU7       0.035867
     45 H15          9.8560    -2.1490    -2.0120 h1         1 HU7       0.035867
     46 H16         11.3660    -1.2480    -1.8210 h1         1 HU7       0.035867
     47 H17          5.5280     1.9530    -1.8720 ha         1 HU7       0.155000
     48 H18          3.4780    -0.1180    -2.6770 ha         1 HU7       0.175000
     49 H19         -1.5220    -0.0050    -1.5410 h4         1 HU7       0.181000
     50 H20          0.4690     0.4740    -7.9650 h1         1 HU7       0.046700
     51 H22         -2.1500     1.8240    -9.9080 ho         1 HU7       0.397000
     52 H24         -3.5020    -1.2540    -5.2260 ho         1 HU7       0.399000
     53 N1           9.5740    -0.1180    -1.7760 nh         1 HU7      -0.836300
     54 C8           6.6700    -3.2420     0.3570 c3         1 HU7       0.138700
     55 O1           5.7950    -2.1600     0.0310 os         1 HU7      -0.428100
     56 O8          -3.5410    -0.1510    -8.1690 oh         1 HU7      -0.614800
     57 C1          10.2450     1.0480    -2.3570 c3         1 HU7       0.236100
     58 C2          10.3390    -1.3340    -1.4880 c3         1 HU7       0.236100
     59 H23         -3.6510    -0.9050    -8.7230 ho         1 HU7       0.400000
@<TRIPOS>BOND
     1    27    26 1
     2    28    26 1
     3    26    24 1
     4    54    55 1
     5    24    25 1
     6    24     9 1
     7    25    10 1
     8    55     4 1
     9    29     9 1
    10     9     8 1
    11    10    23 1
    12    10    12 1
    13     4     3 ar
    14     4     5 ar
    15    23    21 1
    16    58    53 1
    17     3    13 ar
    18    21    22 2
    19    21    11 1
    20    20     1 1
    21    20    11 2
    22     1    17 1
    23    11    16 1
    24    17    16 ar
    25    17     7 ar
    26    16    15 ar
    27     8    12 1
    28     8    56 1
    29     7    18 ar
    30    15     6 ar
    31    18     6 ar
    32    18    19 1
    33     6     5 1
    34    12    30 1
    35     5    14 ar
    36    13    53 1
    37    13     2 ar
    38    53    57 1
    39    14     2 ar
    40     1    31 1
    41     2    32 1
    42     7    33 1
    43     8    34 1
    44     9    35 1
    45    54    36 1
    46    54    37 1
    47    54    38 1
    48    10    39 1
    49    12    40 1
    50    57    41 1
    51    57    42 1
    52    57    43 1
    53    58    44 1
    54    58    45 1
    55    58    46 1
    56    14    47 1
    57    15    48 1
    58    20    49 1
    59    24    50 1
    60    29    51 1
    61    56    59 1
    62    30    52 1
@<TRIPOS>SUBSTRUCTURE
     1 HU7         1 TEMP              0 ****  ****    0 ROOT
