@<TRIPOS>MOLECULE
HU7
   59    62     1     0     0
SMALL
bcc


@<TRIPOS>ATOM
      1 N3           0.0000     0.0000     0.0000 na         1 HU7       0.369600
      2 C4           7.4770     1.0480    -1.8740 ca         1 HU7      -0.348300
      3 N2           7.6360    -1.0930    -0.8850 nb         1 HU7      -0.733000
      4 C7           6.3460    -1.0920    -0.6010 ca         1 HU7       0.674600
      5 C6           5.5420     0.0010    -0.9430 cp         1 HU7      -0.238300
      6 C9           4.0940    -0.0010    -0.6240 cp         1 HU7      -0.036000
      7 C13          2.3300     0.0000     1.0180 ca         1 HU7      -0.113000
      8 C20         -2.1930    -0.0980    -7.6970 c3         1 HU7       0.141100
      9 C21         -1.5410     1.2120    -8.1510 c3         1 HU7       0.160100
     10 C18         -0.7410    -0.0220    -5.6690 c3         1 HU7       0.385900
     11 C16          0.5670    -0.0080    -2.1510 cc         1 HU7      -0.185400
     12 C19         -2.1820    -0.1570    -6.1670 c3         1 HU7       0.137100
     13 C3           8.2140    -0.0710    -1.5000 ca         1 HU7       0.568200
     14 C5           6.1240     1.0930    -1.5930 ca         1 HU7       0.037000
     15 C10          3.1570     0.0030    -1.6500 ca         1 HU7      -0.009000
     16 C11          1.8010     0.0000    -1.3400 ca         1 HU7      -0.045800
     17 C12          1.3800     0.0000     0.0000 ca         1 HU7      -0.241200
     18 C14          3.6720    -0.0000     0.7100 ca         1 HU7       0.004400
     19 Cl1          4.8480    -0.0010     1.9870 cl         1 HU7      -0.044400
     20 C15         -0.4740    -0.0050    -1.2680 cd         1 HU7      -0.226100
     21 C17          0.4780    -0.0110    -3.6150 c          1 HU7       0.747300
     22 O2           1.4920    -0.0060    -4.2860 o          1 HU7      -0.561000
     23 O3          -0.7290    -0.0190    -4.2170 os         1 HU7      -0.418900
     24 C22         -0.1250     1.2940    -7.5770 c3         1 HU7       0.070100
     25 O4          -0.1840     1.2020    -6.1520 os         1 HU7      -0.369600
     26 C23          0.5020     2.6060    -7.9700 c          1 HU7       0.980600
     27 O5           0.7780     3.4220    -7.1230 o          1 HU7      -0.875800
     28 O6           0.7530     2.8690    -9.2630 o          1 HU7      -0.875800
     29 O7          -1.4810     1.2450    -9.5790 oh         1 HU7      -0.546800
     30 O9          -2.7220    -1.4070    -5.7330 oh         1 HU7      -0.591800
     31 H1          -0.5700     0.0030     0.8220 hn         1 HU7       0.107700
     32 H2           7.9590     1.8780    -2.3770 ha         1 HU7       0.127000
     33 H3           2.0130     0.0000     2.0530 ha         1 HU7       0.104000
     34 H4          -1.6330    -0.9360    -8.0940 h1         1 HU7       0.018700
     35 H5          -2.1250     2.0490    -7.7890 h1         1 HU7       0.018700
     36 H6           6.1100    -4.0180     0.8660 h1         1 HU7      -0.004633
     37 H7           7.4670    -2.8910     1.0010 h1         1 HU7      -0.004633
     38 H8           7.0920    -3.6420    -0.5570 h1         1 HU7      -0.004633
     39 H9          -0.1530    -0.8540    -6.0380 h2         1 HU7       0.013700
     40 H10         -2.7780     0.6570    -5.7710 h1         1 HU7       0.024700
     41 H11          9.8380     1.2460    -3.3410 h1         1 HU7       0.005033
     42 H12         10.0800     1.9080    -1.7180 h1         1 HU7       0.005033
     43 H13         11.3080     0.8580    -2.4380 h1         1 HU7       0.005033
     44 H14         10.3200    -1.5280    -0.4220 h1         1 HU7       0.005033
     45 H15          9.8560    -2.1490    -2.0120 h1         1 HU7       0.005033
     46 H16         11.3660    -1.2480    -1.8210 h1         1 HU7       0.005033
     47 H17          5.5280     1.9530    -1.8720 ha         1 HU7       0.119000
     48 H18          3.4780    -0.1180    -2.6770 ha         1 HU7       0.142000
     49 H19         -1.5220    -0.0050    -1.5410 h4         1 HU7       0.149000
     50 H20          0.4690     0.4740    -7.9650 h1         1 HU7       0.017700
     51 H22         -2.1500     1.8240    -9.9080 ho         1 HU7       0.381000
     52 H24         -3.5020    -1.2540    -5.2260 ho         1 HU7       0.386000
     53 N1           9.5740    -0.1180    -1.7760 nh         1 HU7      -0.490300
     54 C8           6.6700    -3.2420     0.3570 c3         1 HU7       0.252700
     55 O1           5.7950    -2.1600     0.0310 os         1 HU7      -0.420100
     56 O8          -3.5410    -0.1510    -8.1690 oh         1 HU7      -0.595800
     57 C1          10.2450     1.0480    -2.3570 c3         1 HU7       0.213600
     58 C2          10.3390    -1.3340    -1.4880 c3         1 HU7       0.213600
     59 H23         -3.6510    -0.9050    -8.7230 ho         1 HU7       0.387000
@<TRIPOS>BOND
     1     1    17 1   
     2     1    20 1   
     3     1    31 1   
     4     2    13 ar  
     5     2    14 ar  
     6     2    32 1   
     7     3     4 ar  
     8     3    13 ar  
     9     4     5 ar  
    10     4    55 1   
    11     5     6 1   
    12     5    14 ar  
    13     6    15 ar  
    14     6    18 ar  
    15     7    17 ar  
    16     7    18 ar  
    17     7    33 1   
    18     8     9 1   
    19     8    12 1   
    20     8    34 1   
    21     8    56 1   
    22     9    24 1   
    23     9    29 1   
    24     9    35 1   
    25    10    12 1   
    26    10    23 1   
    27    10    25 1   
    28    10    39 1   
    29    11    16 1   
    30    11    20 2   
    31    11    21 1   
    32    12    30 1   
    33    12    40 1   
    34    13    53 1   
    35    14    47 1   
    36    15    16 ar  
    37    15    48 1   
    38    16    17 ar  
    39    18    19 1   
    40    20    49 1   
    41    21    22 2   
    42    21    23 1   
    43    24    25 1   
    44    24    26 1   
    45    24    50 1   
    46    26    27 1   
    47    26    28 1   
    48    29    51 1   
    49    30    52 1   
    50    36    54 1   
    51    37    54 1   
    52    38    54 1   
    53    41    57 1   
    54    42    57 1   
    55    43    57 1   
    56    44    58 1   
    57    45    58 1   
    58    46    58 1   
    59    53    57 1   
    60    53    58 1   
    61    54    55 1   
    62    56    59 1   
@<TRIPOS>SUBSTRUCTURE
     1 HU7         1 TEMP              0 ****  ****    0 ROOT
