@<TRIPOS>MOLECULE
HUB
   39    42     1     0     0
SMALL
bcc


@<TRIPOS>ATOM
      1 C1         -0.0890   -0.0490   -0.2160 c         1 HUB      0.685700
      2 O1         -0.6260   -0.0550   -1.3420 o         1 HUB     -0.651500
      3 N1          1.3170   -0.0730   -0.1560 n         1 HUB     -0.442100
      4 C2         -0.7890   -0.0230    1.0640 cc        1 HUB     -0.270200
      5 C3         -0.1020   -0.0080    2.2340 cd        1 HUB     -0.016000
      6 C4          1.3340   -0.0090    2.2490 cd        1 HUB     -0.175200
      7 C5          2.0100   -0.0640    1.0420 cc        1 HUB      0.073400
      8 C6          3.5100   -0.1140    0.9480 c3        1 HUB     -0.046200
      9 C7          4.1640   -0.3990    2.2940 c3        1 HUB     -0.013500
     10 C8          4.0460   -1.8490    2.6200 c2        1 HUB     -0.185200
     11 C9          2.9480    2.7410    4.1920 c3        1 HUB     -0.113400
     12 C10         3.6640    1.9300    3.1340 c3        1 HUB     -0.074400
     13 C11         3.5340    0.4400    3.4000 c3        1 HUB     -0.087700
     14 C12         2.0550   -0.0090    3.5820 c3        1 HUB      0.252400
     15 N2          1.3470    0.8410    4.5630 n3        1 HUB     -0.797200
     16 C13         2.0800   -1.4760    4.1020 c3        1 HUB     -0.040200
     17 C14         3.0910   -2.3350    3.4260 c2        1 HUB     -0.097400
     18 C15         2.9740   -3.7830    3.7260 c3        1 HUB     -0.061900
     19 C90         1.5030    2.2600    4.3210 c3        1 HUB      0.151800
     20 H1          1.8270   -0.1160   -1.0110 hn        1 HUB      0.327500
     21 H2         -1.8860   -0.0230    1.0100 ha        1 HUB      0.161000
     22 H3         -0.6400   -0.0000    3.1960 ha        1 HUB      0.157000
     23 H6C1        3.8240   -0.9100    0.2180 hc        1 HUB      0.061700
     24 H6C2        3.8820    0.8700    0.5510 hc        1 HUB      0.061700
     25 H7          5.2550   -0.1290    2.2140 hc        1 HUB      0.060700
     26 H8          4.7860   -2.5070    2.1400 ha        1 HUB      0.127000
     27 H9C1        2.9540    3.8250    3.9130 hc        1 HUB      0.045200
     28 H9C2        3.4770    2.6420    5.1760 hc        1 HUB      0.045200
     29 H101        3.2250    2.1780    2.1310 hc        1 HUB      0.044700
     30 H102        4.7500    2.2060    3.1070 hc        1 HUB      0.044700
     31 H11         4.0770    0.2100    4.3600 hc        1 HUB      0.056700
     32 HA          1.6910    0.6160    5.4800 hn        1 HUB      0.353800
     33 H131        2.3070   -1.4910    5.2040 hc        1 HUB      0.058200
     34 H132        1.0580   -1.9190    3.9640 hc        1 HUB      0.058200
     35 H151        3.8170   -4.3640    3.2790 hc        1 HUB      0.045033
     36 H152        2.9750   -3.9500    4.8320 hc        1 HUB      0.045033
     37 H153        2.0130   -4.1810    3.3140 hc        1 HUB      0.045033
     38 H901        0.9990    2.8090    5.1650 h1        1 HUB      0.056700
     39 H902        0.9530    2.5020    3.3680 h1        1 HUB      0.056700
@<TRIPOS>BOND
     1    1    2 2   
     2    1    3 1   
     3    1    4 1   
     4    3    7 1   
     5    3   20 1   
     6    4    5 2   
     7    4   21 1   
     8    5    6 1   
     9    5   22 1   
    10    6    7 2   
    11    6   14 1   
    12    7    8 1   
    13    8    9 1   
    14    8   23 1   
    15    8   24 1   
    16    9   10 1   
    17    9   13 1   
    18    9   25 1   
    19   10   17 2   
    20   10   26 1   
    21   11   12 1   
    22   11   19 1   
    23   11   27 1   
    24   11   28 1   
    25   12   13 1   
    26   12   29 1   
    27   12   30 1   
    28   13   14 1   
    29   13   31 1   
    30   14   15 1   
    31   14   16 1   
    32   15   19 1   
    33   15   32 1   
    34   16   17 1   
    35   16   33 1   
    36   16   34 1   
    37   17   18 1   
    38   18   35 1   
    39   18   36 1   
    40   18   37 1   
    41   19   38 1   
    42   19   39 1   
@<TRIPOS>SUBSTRUCTURE
     1 HUB         1 TEMP              0 ****  ****    0 ROOT
