@<TRIPOS>MOLECULE
molecule
   62    66     1     0     0
SMALL
bcc


@<TRIPOS>ATOM
      1 C4           0.0000     0.0000     0.0000 ca         1 HUG      -0.114500
      2 C7          -0.7350     0.0210     3.6860 cp         1 HUG      -0.160000
      3 C6           0.0050     0.0140     2.4010 cp         1 HUG      -0.027000
      4 C9          -1.3210     1.1420     5.7390 ca         1 HUG      -0.218000
      5 C13         -3.1200    -2.0010     5.9250 cc         1 HUG      -0.159400
      6 C20         -5.9320    -6.3710     3.7740 c3         1 HUG       0.041100
      7 C21         -6.7090    -6.0380     2.5260 c          1 HUG       0.902600
      8 C8          -0.6380     1.1250     4.5430 ca         1 HUG       0.186900
      9 C18         -6.0390    -7.4670     6.0130 c3         1 HUG       0.106100
     10 C16         -4.7560    -5.3660     5.6060 c3         1 HUG       0.345900
     11 C19         -6.8150    -7.1830     4.7240 c3         1 HUG       0.126100
     12 C26          4.1080     0.8550    -2.3670 c3         1 HUG       0.140400
     13 C1           1.3980     0.0130     2.3950 ca         1 HUG      -0.104000
     14 C2           2.0800     0.0000     1.1950 ca         1 HUG      -0.114500
     15 C3           1.3840     0.0000     0.0000 ca         1 HUG      -0.081300
     16 C5          -0.6920     0.0070     1.1940 ca         1 HUG      -0.104000
     17 C10         -2.1140     0.0560     6.1070 ca         1 HUG      -0.004200
     18 C11         -2.2220    -1.0470     5.2470 ca         1 HUG      -0.118800
     19 C12         -1.5280    -1.0660     4.0390 ca         1 HUG       0.245900
     20 F1          -1.6240    -2.1340     3.2160 f          1 HUG      -0.083900
     21 C14         -3.4810    -1.4210     7.1050 cd         1 HUG      -0.055100
     22 N1          -2.8930    -0.2040     7.2150 na         1 HUG      -0.172400
     23 C15         -3.5460    -3.3140     5.4240 c          1 HUG       0.668300
     24 O1          -3.1510    -3.7110     4.3460 o          1 HUG      -0.497000
     25 O2          -4.3760    -4.0790     6.1620 os         1 HUG      -0.431900
     26 C17         -5.5910    -6.1380     6.6300 c3         1 HUG       0.110100
     27 O3          -5.5260    -5.1630     4.4200 os         1 HUG      -0.387600
     28 O4          -6.9740    -4.8870     2.2690 o          1 HUG      -0.816300
     29 O5          -7.1070    -7.0190     1.7010 o          1 HUG      -0.816300
     30 O6          -7.1750    -8.4190     4.1020 oh         1 HUG      -0.567800
     31 O7          -6.8800    -8.1630     6.9350 oh         1 HUG      -0.612800
     32 O8          -4.8050    -6.3920     7.7950 oh         1 HUG      -0.610800
     33 F2           0.1290     2.1790     4.1930 f          1 HUG      -0.133900
     34 C22          2.1350    -0.0020    -1.3070 c3         1 HUG       0.193400
     35 C23          2.4990    -1.4410    -1.6840 c3         1 HUG      -0.107400
     36 C24          3.3130    -1.4300    -2.9820 c3         1 HUG      -0.082400
     37 C25          4.5510    -0.5490    -2.7870 c3         1 HUG      -0.120400
     38 O9           3.3290     0.7700    -1.1720 os         1 HUG      -0.420600
     39 H1          -0.5410    -0.0030    -0.9390 ha         1 HUG       0.135500
     40 H2          -1.2400     2.0000     6.3960 ha         1 HUG       0.138000
     41 H4          -5.1680    -8.0700     5.7850 h1         1 HUG       0.052700
     42 H5          -3.8670    -5.9360     5.3640 h2         1 HUG       0.053700
     43 H6          -7.7080    -6.6170     4.9580 h1         1 HUG       0.053700
     44 H7           3.5100     1.2950    -3.1560 h1         1 HUG       0.042200
     45 H8           4.9820     1.4680    -2.1840 h1         1 HUG       0.042200
     46 H9           1.9450     0.0130     3.3300 ha         1 HUG       0.139500
     47 H10          3.1630    -0.0000     1.1890 ha         1 HUG       0.135500
     48 H11         -1.7750     0.0070     1.1920 ha         1 HUG       0.139500
     49 H12         -4.1380    -1.8640     7.8430 h4         1 HUG       0.185000
     50 H13         -3.0050     0.4150     7.9930 hn         1 HUG       0.297700
     51 H14         -6.4630    -5.5530     6.8970 h1         1 HUG       0.060700
     52 H16         -8.0900    -8.5910     4.2500 ho         1 HUG       0.397000
     53 H17         -6.4750    -8.9850     7.1560 ho         1 HUG       0.400000
     54 H18         -5.2240    -6.0100     8.5470 ho         1 HUG       0.399000
     55 H19          1.5150     0.4270    -2.0850 h1         1 HUG       0.040700
     56 H20          1.5920    -2.0160    -1.8320 hc         1 HUG       0.059200
     57 H21          3.0890    -1.8840    -0.8910 hc         1 HUG       0.059200
     58 H22          3.6230    -2.4400    -3.2230 hc         1 HUG       0.042200
     59 H23          2.7070    -1.0300    -3.7850 hc         1 HUG       0.042200
     60 H24          5.1790    -0.9750    -2.0140 hc         1 HUG       0.046700
     61 H25          5.1020    -0.4890    -3.7180 hc         1 HUG       0.046700
     62 H3          -5.0550    -6.9520     3.5140 h1         1 HUG       0.047700
@<TRIPOS>BOND
     1    28     7 1
     2    29     7 1
     3     7     6 1
     4     6    27 1
     5     6    11 1
     6    27    10 1
     7    30    11 1
     8    11     9 1
     9    35    36 1
    10    35    34 1
    11    36    37 1
    12    16     1 ar
    13    16     3 ar
    14     1    15 ar
    15    10    25 1
    16    10    26 1
    17    25    23 1
    18    21     5 2
    19    21    22 1
    20    23     5 1
    21    23    24 2
    22     5    18 1
    23    22    17 1
    24    18    17 ar
    25    18    19 ar
    26    17     4 ar
    27    20    19 1
    28    19     2 ar
    29     4     8 ar
    30     9    26 1
    31     9    31 1
    32     2     8 ar
    33     2     3 1
    34     8    33 1
    35     3    13 ar
    36    26    32 1
    37    15    34 1
    38    15    14 ar
    39    37    12 1
    40    34    38 1
    41    13    14 ar
    42    38    12 1
    43     1    39 1
    44     4    40 1
    45     6    62 1
    46     9    41 1
    47    10    42 1
    48    11    43 1
    49    12    44 1
    50    12    45 1
    51    13    46 1
    52    14    47 1
    53    16    48 1
    54    21    49 1
    55    22    50 1
    56    26    51 1
    57    30    52 1
    58    31    53 1
    59    32    54 1
    60    34    55 1
    61    35    56 1
    62    35    57 1
    63    36    58 1
    64    36    59 1
    65    37    60 1
    66    37    61 1
@<TRIPOS>SUBSTRUCTURE
     1 HUG         1 TEMP              0 ****  ****    0 ROOT
