@<TRIPOS>MOLECULE
molecule
   14    13     1     0     0
SMALL
bcc


@<TRIPOS>ATOM
      1 O2           0.0000     0.0000     0.0000 o          1 HUI      -0.853800
      2 C1           1.3420     0.0000     0.0000 c          1 HUI       0.896600
      3 O1           1.9460     0.0010    -1.0470 o          1 HUI      -0.853800
      4 C2           2.0960     0.0000     1.3060 c3         1 HUI      -0.169700
      5 C3           1.7250    -1.2490     2.1080 c3         1 HUI      -0.063100
      6 C4           3.6000     0.0010     1.0260 c3         1 HUI       0.148400
      7 O3           4.3130     0.1180     2.2590 oh         1 HUI      -0.637800
      8 H2           1.8340     0.8840     1.8730 hc         1 HUI       0.046700
      9 H3           2.2900    -1.2660     3.0310 hc         1 HUI       0.021367
     10 H4           0.6650    -1.2320     2.3330 hc         1 HUI       0.021367
     11 H5           1.9560    -2.1330     1.5260 hc         1 HUI       0.021367
     12 H6           3.8760    -0.9240     0.5350 h1         1 HUI       0.025200
     13 H7           3.8480     0.8380     0.3850 h1         1 HUI       0.025200
     14 H8           5.2090     0.3510     2.0820 ho         1 HUI       0.373000
@<TRIPOS>BOND
     1     3     2 1
     2     1     2 1
     3     2     4 1
     4     5     4 1
     5     4     6 1
     6     6     7 1
     7     4     8 1
     8     5     9 1
     9     5    10 1
    10     5    11 1
    11     6    12 1
    12     6    13 1
    13     7    14 1
@<TRIPOS>SUBSTRUCTURE
     1 HUI         1 TEMP              0 ****  ****    0 ROOT
