@<TRIPOS>MOLECULE
molecule
   34    36     1     0     0
SMALL
bcc


@<TRIPOS>ATOM
      1 C1           0.0000     0.0000     0.0000 ca         1 HUL       0.024100
      2 C2           1.3840     0.0000     0.0000 ca         1 HUL       0.195100
      3 C3           2.0740     0.0000     1.2190 ca         1 HUL      -0.262600
      4 C4           1.3650     0.0000     2.4330 ca         1 HUL       0.184100
      5 C5          -0.0210     0.0010     2.4140 ca         1 HUL      -0.215000
      6 C6          -0.6990     0.0000     1.2060 ca         1 HUL       0.161100
      7 C7          -0.9990     1.2820    -1.7390 c3         1 HUL       0.139700
      8 C8           3.5460    -0.0010     1.2640 c          1 HUL       0.584900
      9 C9           4.1590    -0.0020     2.5390 cc         1 HUL      -0.335200
     10 C10          3.3820    -0.0010     3.6560 cd         1 HUL       0.205900
     11 C11          4.0380    -0.0010     4.9770 ca         1 HUL      -0.082800
     12 C12          5.4340     0.0040     5.0660 ca         1 HUL      -0.080000
     13 C13          6.0430     0.0050     6.3020 ca         1 HUL      -0.158500
     14 C14          5.2730    -0.0010     7.4580 ca         1 HUL       0.128100
     15 C15          3.8850    -0.0070     7.3750 ca         1 HUL      -0.158500
     16 O21         -0.6810     0.0060    -1.1800 os         1 HUL      -0.339900
     17 O19          2.0700    -0.0010    -1.1730 oh         1 HUL      -0.487100
     18 O20         -2.0570     0.0010     1.1970 oh         1 HUL      -0.500100
     19 O17          2.0400    -0.0000     3.6030 os         1 HUL      -0.214200
     20 O18          4.2120    -0.0020     0.2410 o          1 HUL      -0.527100
     21 O22          5.8780    -0.0010     8.6740 oh         1 HUL      -0.520100
     22 C16          3.2680    -0.0010     6.1430 ca         1 HUL      -0.080000
     23 H1          -0.5740     0.0010     3.3450 ha         1 HUL       0.157000
     24 H2          -0.4370     2.0520    -1.2240 h1         1 HUL       0.040033
     25 H3          -0.7420     1.2890    -2.7910 h1         1 HUL       0.040033
     26 H4          -2.0600     1.4720    -1.6250 h1         1 HUL       0.040033
     27 H5           5.2310    -0.1320     2.6250 ha         1 HUL       0.170000
     28 H6           6.0350     0.0080     4.1650 ha         1 HUL       0.148500
     29 H7           7.1240     0.0090     6.3720 ha         1 HUL       0.148500
     30 H8           3.2890    -0.0090     8.2790 ha         1 HUL       0.148500
     31 H9           2.0970    -0.8770    -1.5200 ho         1 HUL       0.438000
     32 H10         -2.3750    -0.8010     1.5780 ho         1 HUL       0.430000
     33 H11          6.0210    -0.8900     8.9540 ho         1 HUL       0.425000
     34 H12          2.1870    -0.0050     6.0790 ha         1 HUL       0.148500
@<TRIPOS>BOND
     1     7    16 1
     2    17     2 1
     3    20     8 2
     4    16     1 1
     5     2     1 ar
     6     2     3 ar
     7     8     3 1
     8     8     9 1
     9     1     6 ar
    10     3     4 ar
    11     9    10 2
    12     6    18 1
    13     6     5 ar
    14     4     5 ar
    15     4    19 1
    16    10    19 1
    17    10    11 1
    18    12    11 ar
    19    12    13 ar
    20    11    22 ar
    21    13    14 ar
    22    22    15 ar
    23    14    15 ar
    24    14    21 1
    25     5    23 1
    26     7    24 1
    27     7    25 1
    28     7    26 1
    29     9    27 1
    30    12    28 1
    31    13    29 1
    32    15    30 1
    33    17    31 1
    34    18    32 1
    35    21    33 1
    36    22    34 1
@<TRIPOS>SUBSTRUCTURE
     1 HUL         1 TEMP              0 ****  ****    0 ROOT
