@<TRIPOS>MOLECULE
HUL
   34    36     1     0     0
SMALL
bcc


@<TRIPOS>ATOM
      1 C1         -0.0630   -0.0480    0.0220 ca        1 HUL     -0.009900
      2 C2          1.3390    0.1170   -0.0400 ca        1 HUL      0.239100
      3 C3          2.1200    0.1060    1.1410 ca        1 HUL     -0.324600
      4 C4          1.4500   -0.0750    2.3670 ca        1 HUL      0.213100
      5 C5          0.0630   -0.2250    2.4570 ca        1 HUL     -0.287000
      6 C6         -0.6900   -0.2000    1.2750 ca        1 HUL      0.204100
      7 C7         -1.0200    1.0440   -1.8330 c3        1 HUL      0.111700
      8 C8          3.5750    0.2680    1.1410 c         1 HUL      0.607900
      9 C9          4.1990    0.2200    2.4600 cc        1 HUL     -0.321200
     10 C10         3.4800    0.0310    3.5900 cd        1 HUL      0.210900
     11 C11         4.0250   -0.0350    4.9440 ca        1 HUL     -0.119800
     12 C12         5.3440   -0.4650    5.1450 ca        1 HUL     -0.052500
     13 C13         5.8790   -0.5160    6.4280 ca        1 HUL     -0.194000
     14 C14         5.0860   -0.1380    7.5210 ca        1 HUL      0.151100
     15 C15         3.7580    0.2880    7.3350 ca        1 HUL     -0.194000
     16 O21        -0.8180   -0.1830   -1.1270 os        1 HUL     -0.303900
     17 O19         1.8430    0.3000   -1.2910 oh        1 HUL     -0.486100
     18 O20        -2.0530   -0.3210    1.2780 oh        1 HUL     -0.465100
     19 O17         2.1000   -0.1170    3.5900 os        1 HUL     -0.225200
     20 O18         4.2460    0.4370    0.1060 o         1 HUL     -0.588100
     21 O22         5.5450   -0.1610    8.8150 oh        1 HUL     -0.490100
     22 C16         3.2380    0.3340    6.0490 ca        1 HUL     -0.052500
     23 H1         -0.4160   -0.3600    3.4360 ha        1 HUL      0.159000
     24 H2         -0.0390    1.4740   -2.1500 h1        1 HUL      0.043700
     25 H3         -1.5820    1.7690   -1.1980 h1        1 HUL      0.043700
     26 H4         -1.6270    0.7360   -2.7200 h1        1 HUL      0.043700
     27 H5          5.2900    0.3550    2.4920 ha        1 HUL      0.171000
     28 H6          5.9620   -0.7700    4.2860 ha        1 HUL      0.148500
     29 H7          6.9140   -0.8530    6.5830 ha        1 HUL      0.150000
     30 H8          3.1540    0.5780    8.2060 ha        1 HUL      0.150000
     31 H9          2.8160    0.3490   -1.2620 ho        1 HUL      0.468000
     32 H10        -2.3380   -0.4870    2.1900 ho        1 HUL      0.425000
     33 H11         6.4630   -0.4700    8.8050 ho        1 HUL      0.425000
     34 H12         2.1990    0.6610    5.8880 ha        1 HUL      0.148500
@<TRIPOS>BOND
     1    1    2 ar  
     2    1    6 ar  
     3    1   16 1   
     4    2    3 ar  
     5    2   17 1   
     6    3    4 ar  
     7    3    8 1   
     8    4    5 ar  
     9    4   19 1   
    10    5    6 ar  
    11    5   23 1   
    12    6   18 1   
    13    7   16 1   
    14    7   24 1   
    15    7   25 1   
    16    7   26 1   
    17    8    9 1   
    18    8   20 2   
    19    9   10 2   
    20    9   27 1   
    21   10   11 1   
    22   10   19 1   
    23   11   12 ar  
    24   11   22 ar  
    25   12   13 ar  
    26   12   28 1   
    27   13   14 ar  
    28   13   29 1   
    29   14   15 ar  
    30   14   21 1   
    31   15   22 ar  
    32   15   30 1   
    33   17   31 1   
    34   18   32 1   
    35   21   33 1   
    36   22   34 1   
@<TRIPOS>SUBSTRUCTURE
     1 HUL         1 TEMP              0 ****  ****    0 ROOT
