@<TRIPOS>MOLECULE
HUP
   37    39     1     0     0
SMALL
bcc


@<TRIPOS>ATOM
      1 C1           0.0000     0.0000     0.0000 c          1 HUP       0.565700
      2 O1          -0.6110     0.0020    -1.0560 o          1 HUP      -0.626500
      3 N1           1.3420     0.0000     0.0000 ns         1 HUP       0.086900
      4 C2          -0.6980     0.0010     1.2190 cc         1 HUP      -0.159200
      5 C3           0.0100    -0.0070     2.3810 cd         1 HUP      -0.081000
      6 C4           1.4180    -0.0150     2.3480 cd         1 HUP      -0.283200
      7 C5           2.0620     0.0000     1.1640 cc         1 HUP      -0.020600
      8 C6           3.5620     0.0320     1.0250 c3         1 HUP       0.020800
      9 C7           4.2390    -0.4530     2.3120 c3         1 HUP       0.080700
     10 C8           3.9190    -1.9100     2.5110 c2         1 HUP      -0.159200
     11 C9           5.6670     1.5440     3.8640 c3         1 HUP       0.050100
     12 C10          4.2220     1.2310     4.1570 c2         1 HUP      -0.100200
     13 C11          3.5910     0.3280     3.4500 c2         1 HUP      -0.193400
     14 C12          2.1350    -0.0480     3.6780 c3         1 HUP       0.064600
     15 N2           1.5030     0.8690     4.6360 nz         1 HUP       0.056400
     16 C13          2.1280    -1.4960     4.1930 c3         1 HUP       0.047800
     17 C14          3.0090    -2.3490     3.3180 c2         1 HUP      -0.117400
     18 C15          2.8100    -3.8410     3.3880 c3         1 HUP       0.053100
     19 HN1          1.8300     0.0000    -0.8740 hn         1 HUP       0.189500
     20 H2          -1.7610     0.2080     1.2350 ha         1 HUP       0.150000
     21 H3          -0.5090    -0.0060     3.3320 ha         1 HUP       0.091000
     22 H61          3.8780     1.0470     0.8190 hc         1 HUP       0.047700
     23 H62          3.8560    -0.6120     0.2050 hc         1 HUP       0.047700
     24 H7           5.3090    -0.2850     2.2810 hc         1 HUP       0.070700
     25 H8           4.4880    -2.6370     1.9440 ha         1 HUP       0.130000
     26 H91          6.0180     2.3050     4.5510 hc         1 HUP       0.027700
     27 H92          6.2620     0.6470     3.9840 hc         1 HUP       0.027700
     28 H93          5.7590     1.9060     2.8470 hc         1 HUP       0.027700
     29 H10          3.7110     1.7420     4.9640 ha         1 HUP       0.077000
     30 HN21         2.0570     0.9160     5.4690 hn         1 HUP       0.230800
     31 HN22         1.4350     1.7810     4.2300 hn         1 HUP       0.230800
     32 H131         2.5030    -1.5170     5.2090 hc         1 HUP       0.038200
     33 H132         1.1160    -1.8810     4.1680 hc         1 HUP       0.038200
     34 H151         2.0690    -4.0710     4.1440 hc         1 HUP       0.020033
     35 H152         3.7480    -4.3190     3.6440 hc         1 HUP       0.020033
     36 H153         2.4700    -4.2060     2.4260 hc         1 HUP       0.020033
     37 H23          0.5760     0.5520     4.8410 hn         1 HUP       0.230800
@<TRIPOS>BOND
     1     1     2 2
     2     1     3 1
     3     1     4 1
     4     3     7 1
     5     3    19 1
     6     4     5 2
     7     4    20 1
     8     5     6 1
     9     5    21 1
    10     6     7 2
    11     6    14 1
    12     7     8 1
    13     8     9 1
    14     8    22 1
    15     8    23 1
    16     9    10 1
    17     9    13 1
    18     9    24 1
    19    10    17 2
    20    10    25 1
    21    11    12 1
    22    11    26 1
    23    11    27 1
    24    11    28 1
    25    12    13 2
    26    12    29 1
    27    13    14 1
    28    14    15 1
    29    14    16 1
    30    15    30 1
    31    15    31 1
    32    15    37 1
    33    16    17 1
    34    16    32 1
    35    16    33 1
    36    17    18 1
    37    18    34 1
    38    18    35 1
    39    18    36 1
@<TRIPOS>SUBSTRUCTURE
     1 HUP         1 TEMP              0 ****  ****    0 ROOT
