@<TRIPOS>MOLECULE
molecule
   41    44     1     0     0
SMALL
bcc


@<TRIPOS>ATOM
      1 O1           0.0000     0.0000     0.0000 oh         1 HUW      -0.615800
      2 C1           5.5590    -0.2050    -5.4810 ca         1 HUW       0.044400
      3 N1           5.8460     1.1070    -2.1210 nb         1 HUW      -0.726000
      4 C3           5.6910     0.2530    -3.1350 ca         1 HUW       0.459600
      5 C4           5.8290     0.7210    -0.8570 ca         1 HUW       0.493600
      6 C14          5.4730    -1.5560    -1.5250 ca         1 HUW       0.232600
      7 C2           5.7180     0.6930    -4.4700 ca         1 HUW      -0.169300
      8 C17          5.3630    -1.5590    -5.2150 ca         1 HUW      -0.140000
      9 C15          5.4980    -1.1240    -2.8690 ca         1 HUW      -0.206300
     10 C5           6.0280     1.7900     0.1900 c3         1 HUW      -0.116700
     11 C13          5.6420    -0.6080    -0.5200 ca         1 HUW      -0.257600
     12 C6           5.5470     1.2940     1.5540 c3         1 HUW      -0.032500
     13 C7           4.0560     1.1360     1.5430 c2         1 HUW      -0.161200
     14 C12          6.2250    -0.0490     1.8410 c3         1 HUW      -0.072400
     15 C8           3.4450    -0.0020     1.4440 c2         1 HUW      -0.118400
     16 C9           4.1530    -1.3210     1.3290 c3         1 HUW      -0.030200
     17 C18          1.9380     0.0000     1.4430 c3         1 HUW      -0.042200
     18 C11          5.6080    -1.0910     0.9050 c3         1 HUW      -0.005400
     19 C10          1.4290     0.0000     0.0000 c3         1 HUW       0.143400
     20 C16          5.3300    -2.0200    -3.9330 ca         1 HUW      -0.090000
     21 H1          -0.3140     0.0000    -0.8890 ho         1 HUW       0.403000
     22 H101         1.7900    -0.8850    -0.5110 h1         1 HUW       0.024200
     23 H102         1.7900     0.8850    -0.5110 h1         1 HUW       0.024200
     24 H181         1.5760    -0.8840     1.9540 hc         1 HUW       0.057700
     25 H182         1.5780     0.8850     1.9530 hc         1 HUW       0.057700
     26 H7           3.4510     2.0300     1.6280 ha         1 HUW       0.125000
     27 H91C         3.6550    -1.9320     0.5860 hc         1 HUW       0.053700
     28 H92C         4.1340    -1.8240     2.2880 hc         1 HUW       0.053700
     29 H6           5.8280     2.0100     2.3170 hc         1 HUW       0.061700
     30 H51C         5.4630     2.6720    -0.0890 hc         1 HUW       0.067700
     31 H52C         7.0810     2.0380     0.2510 hc         1 HUW       0.067700
     32 H121         6.0530    -0.3340     2.8720 hc         1 HUW       0.049200
     33 H122         7.2890     0.0290     1.6540 hc         1 HUW       0.049200
     34 H2           5.7790     1.7520    -4.6900 ha         1 HUW       0.162000
     35 H17          5.2340    -2.2530    -6.0370 ha         1 HUW       0.143000
     36 H16          5.1770    -3.0750    -3.7380 ha         1 HUW       0.132000
     37 H21N         5.8200    -3.3180    -0.4820 hn         1 HUW       0.436300
     38 H22N         4.6360    -3.4440    -1.7420 hn         1 HUW       0.436300
     39 H11          6.1590    -2.0200     0.9850 hc         1 HUW       0.046700
     40 Cl1          5.5940     0.3460    -7.1260 cl         1 HUW      -0.107400
     41 N2           5.2840    -2.8940    -1.2140 nv         1 HUW      -0.931200
@<TRIPOS>BOND
     1     1    19 1
     2    19    17 1
     3    17    15 1
     4    15    13 2
     5    15    16 1
     6    13    12 1
     7    12    10 1
     8    12    14 1
     9    10     5 1
    10     5     3 ar
    11     5    11 ar
    12     3     4 ar
    13     4     7 ar
    14     4     9 ar
    15     7     2 ar
    16     2    40 1
    17     2     8 ar
    18     8    20 ar
    19    20     9 ar
    20     9     6 ar
    21     6    41 1
    22     6    11 ar
    23    11    18 1
    24    18    14 1
    25    18    16 1
    26     1    21 1
    27    19    22 1
    28    19    23 1
    29    17    24 1
    30    17    25 1
    31    13    26 1
    32    16    27 1
    33    16    28 1
    34    12    29 1
    35    10    30 1
    36    10    31 1
    37    14    32 1
    38    14    33 1
    39     7    34 1
    40     8    35 1
    41    20    36 1
    42    41    37 1
    43    41    38 1
    44    18    39 1
@<TRIPOS>SUBSTRUCTURE
     1 HUW         1 TEMP              0 ****  ****    0 ROOT
