@<TRIPOS>MOLECULE
molecule
   40    43     1     0     0
SMALL
bcc


@<TRIPOS>ATOM
      1 Cl1          0.0000     0.0000     0.0000 cl         1 HUX      -0.109400
      2 C1           1.7360     0.0000     0.0000 ca         1 HUX       0.039400
      3 N1           4.4990     0.0010     2.3370 nb         1 HUX      -0.701000
      4 C3           3.8110    -0.0000     1.1930 ca         1 HUX       0.438600
      5 C4           5.8180     0.0020     2.3730 ca         1 HUX       0.471600
      6 C14          5.9160    -0.0000    -0.0240 ca         1 HUX       0.210600
      7 C2           2.4060     0.0000     1.1870 ca         1 HUX      -0.164300
      8 C17          2.4220     0.0000    -1.2120 ca         1 HUX      -0.135000
      9 C15          4.5050     0.0000    -0.0410 ca         1 HUX      -0.182300
     10 C5           6.4680     0.0090     3.7340 c3         1 HUX      -0.117700
     11 C13          6.5640    -0.0010     1.2080 ca         1 HUX      -0.202600
     12 C6           7.9270    -0.4360     3.6320 c3         1 HUX      -0.032500
     13 C7           7.9950    -1.8850     3.2570 c2         1 HUX      -0.170200
     14 C12          8.6140     0.4240     2.5660 c3         1 HUX      -0.075400
     15 C8           8.2760    -2.3190     2.0710 c2         1 HUX      -0.115400
     16 C9           8.5830    -1.4220     0.9070 c3         1 HUX      -0.025200
     17 C18          8.3000    -3.8100     1.8460 c3         1 HUX      -0.046200
     18 C11          8.0690    -0.0060     1.2020 c3         1 HUX      -0.008400
     19 C10          6.9080    -4.2860     1.4280 c3         1 HUX      -0.087100
     20 C16          3.7840     0.0010    -1.2430 ca         1 HUX      -0.090000
     21 HN21         6.7550    -0.8490    -1.7220 hn         1 HUX       0.433800
     22 HN22         7.0040     0.8590    -1.5680 hn         1 HUX       0.433800
     23 HC2          1.8600    -0.0950     2.1170 ha         1 HUX       0.161000
     24 H17          1.8650     0.0000    -2.1420 ha         1 HUX       0.142000
     25 HC51         6.4300     1.0120     4.1420 hc         1 HUX       0.066700
     26 HC52         5.9340    -0.6700     4.3880 hc         1 HUX       0.066700
     27 HC6          8.4170    -0.2880     4.5870 hc         1 HUX       0.059700
     28 HC7          7.7970    -2.6180     4.0300 ha         1 HUX       0.122000
     29 H121         8.3920     1.4700     2.7380 hc         1 HUX       0.048700
     30 H122         9.6860     0.2650     2.6000 hc         1 HUX       0.048700
     31 HC91         9.6540    -1.3910     0.7500 hc         1 HUX       0.052200
     32 HC92         8.0940    -1.8040     0.0190 hc         1 HUX       0.052200
     33 H181         9.0130    -4.0450     1.0650 hc         1 HUX       0.044200
     34 H182         8.5920    -4.3080     2.7630 hc         1 HUX       0.044200
     35 H11          8.4290     0.6740     0.4400 hc         1 HUX       0.059700
     36 H101         6.1720    -3.9140     2.1310 hc         1 HUX       0.035700
     37 H102         6.6810    -3.9120     0.4370 hc         1 HUX       0.035700
     38 H103         6.8840    -5.3690     1.4200 hc         1 HUX       0.035700
     39 H16          4.3070     0.0020    -2.1920 ha         1 HUX       0.141000
     40 N2           6.6390     0.0010    -1.2060 nv         1 HUX      -0.982200
@<TRIPOS>BOND
     1     1     2 1
     2     2     7 ar
     3     2     8 ar
     4     3     4 ar
     5     3     5 ar
     6     4     7 ar
     7     4     9 ar
     8     5    10 1
     9     5    11 ar
    10    40     6 1
    11    40    21 1
    12    40    22 1
    13     6     9 ar
    14     6    11 ar
    15     7    23 1
    16     8    20 ar
    17     8    24 1
    18     9    20 ar
    19    10    12 1
    20    10    25 1
    21    10    26 1
    22    11    18 1
    23    12    13 1
    24    12    14 1
    25    12    27 1
    26    13    15 2
    27    13    28 1
    28    14    18 1
    29    14    29 1
    30    14    30 1
    31    15    16 1
    32    15    17 1
    33    16    18 1
    34    16    31 1
    35    16    32 1
    36    17    19 1
    37    17    33 1
    38    17    34 1
    39    18    35 1
    40    19    36 1
    41    19    37 1
    42    19    38 1
    43    20    39 1
@<TRIPOS>SUBSTRUCTURE
     1 HUX         1 TEMP              0 ****  ****    0 ROOT
