@<TRIPOS>MOLECULE
HUX
   40    43     1     0     0
SMALL
bcc


@<TRIPOS>ATOM
      1 Cl1          0.0000     0.0000     0.0000 cl         1 HUX      -0.029400
      2 C1           1.7360     0.0000     0.0000 ca         1 HUX      -0.026600
      3 N1           4.4990     0.0010     2.3370 nb         1 HUX      -0.581000
      4 C3           3.8110    -0.0000     1.1930 ca         1 HUX       0.392600
      5 C4           5.8180     0.0020     2.3730 ca         1 HUX       0.415600
      6 C14          5.9160    -0.0000    -0.0240 ca         1 HUX       0.071600
      7 C2           2.4060     0.0000     1.1870 ca         1 HUX      -0.143300
      8 C17          2.4220     0.0000    -1.2120 ca         1 HUX      -0.106000
      9 C15          4.5050     0.0000    -0.0410 ca         1 HUX      -0.172300
     10 C5           6.4680     0.0090     3.7340 c3         1 HUX      -0.062700
     11 C13          6.5640    -0.0010     1.2080 ca         1 HUX      -0.193600
     12 C6           7.9270    -0.4360     3.6320 c3         1 HUX       0.005500
     13 C7           7.9950    -1.8850     3.2570 c2         1 HUX      -0.155200
     14 C12          8.6140     0.4240     2.5660 c3         1 HUX      -0.024400
     15 C8           8.2760    -2.3190     2.0710 c2         1 HUX      -0.133400
     16 C9           8.5830    -1.4220     0.9070 c3         1 HUX       0.038800
     17 C18          8.3000    -3.8100     1.8460 c3         1 HUX       0.021800
     18 C11          8.0690    -0.0060     1.2020 c3         1 HUX       0.021600
     19 C10          6.9080    -4.2860     1.4280 c3         1 HUX       0.006900
     20 C16          3.7840     0.0010    -1.2430 ca         1 HUX      -0.067000
     21 HN21         6.7550    -0.8490    -1.7220 hn         1 HUX       0.278300
     22 HN22         7.0040     0.8590    -1.5680 hn         1 HUX       0.278300
     23 HC2          1.8600    -0.0950     2.1170 ha         1 HUX       0.129000
     24 H17          1.8650     0.0000    -2.1420 ha         1 HUX       0.114000
     25 HC51         6.4300     1.0120     4.1420 hc         1 HUX       0.032200
     26 HC52         5.9340    -0.6700     4.3880 hc         1 HUX       0.032200
     27 HC6          8.4170    -0.2880     4.5870 hc         1 HUX       0.030700
     28 HC7          7.7970    -2.6180     4.0300 ha         1 HUX       0.104000
     29 H121         8.3920     1.4700     2.7380 hc         1 HUX       0.021200
     30 H122         9.6860     0.2650     2.6000 hc         1 HUX       0.021200
     31 HC91         9.6540    -1.3910     0.7500 hc         1 HUX       0.023700
     32 HC92         8.0940    -1.8040     0.0190 hc         1 HUX       0.023700
     33 H181         9.0130    -4.0450     1.0650 hc         1 HUX       0.013700
     34 H182         8.5920    -4.3080     2.7630 hc         1 HUX       0.013700
     35 H11          8.4290     0.6740     0.4400 hc         1 HUX       0.032700
     36 H101         6.1720    -3.9140     2.1310 hc         1 HUX       0.003367
     37 H102         6.6810    -3.9120     0.4370 hc         1 HUX       0.003367
     38 H103         6.8840    -5.3690     1.4200 hc         1 HUX       0.003367
     39 H16          4.3070     0.0020    -2.1920 ha         1 HUX       0.110000
     40 N2           6.6390     0.0010    -1.2060 nv         1 HUX      -0.547200
@<TRIPOS>BOND
     1     1     2 1   
     2     2     7 ar  
     3     2     8 ar  
     4     3     4 ar  
     5     3     5 ar  
     6     4     7 ar  
     7     4     9 ar  
     8     5    10 1   
     9     5    11 ar  
    10     6     9 ar  
    11     6    11 ar  
    12     6    40 1   
    13     7    23 1   
    14     8    20 ar  
    15     8    24 1   
    16     9    20 ar  
    17    10    12 1   
    18    10    25 1   
    19    10    26 1   
    20    11    18 1   
    21    12    13 1   
    22    12    14 1   
    23    12    27 1   
    24    13    15 2   
    25    13    28 1   
    26    14    18 1   
    27    14    29 1   
    28    14    30 1   
    29    15    16 1   
    30    15    17 1   
    31    16    18 1   
    32    16    31 1   
    33    16    32 1   
    34    17    19 1   
    35    17    33 1   
    36    17    34 1   
    37    18    35 1   
    38    19    36 1   
    39    19    37 1   
    40    19    38 1   
    41    20    39 1   
    42    21    40 1   
    43    22    40 1   
@<TRIPOS>SUBSTRUCTURE
     1 HUX         1 TEMP              0 ****  ****    0 ROOT
