@<TRIPOS>MOLECULE
molecule
   32    33     1     0     0
SMALL
bcc


@<TRIPOS>ATOM
      1 C3           0.0000     0.0000     0.0000 c3         1 HUY      -0.190100
      2 C4           1.5080     0.0000     0.0000 c          1 HUY       0.570700
      3 O1           2.1140     0.0000     1.0510 o          1 HUY      -0.510100
      4 C5           2.2410    -0.0010    -1.2700 ca         1 HUY      -0.185600
      5 C6           1.5480    -0.0860    -2.4840 ca         1 HUY      -0.087000
      6 C7           2.2440    -0.0860    -3.6720 ca         1 HUY      -0.143000
      7 C8           3.6280    -0.0020    -3.6750 ca         1 HUY      -0.096000
      8 C9           4.3270     0.0810    -2.4880 ca         1 HUY      -0.150000
      9 C10          3.6450     0.0890    -1.2770 ca         1 HUY       0.198600
     10 N2           4.3440     0.1800    -0.0830 nu         1 HUY      -0.697000
     11 C11          4.6100    -0.9720     0.6620 ca         1 HUY       0.220600
     12 C12          4.2870    -2.2210     0.1480 ca         1 HUY      -0.176000
     13 C13          4.5500    -3.3590     0.8860 ca         1 HUY      -0.091000
     14 C14          5.1340    -3.2550     2.1350 ca         1 HUY      -0.137000
     15 C15          5.4570    -2.0130     2.6490 ca         1 HUY      -0.136300
     16 C16          6.1000    -1.9040     4.0080 c3         1 HUY       0.673200
     17 F1           6.9320    -0.7800     4.0420 f          1 HUY      -0.225300
     18 F2           5.1060    -1.7780     4.9850 f          1 HUY      -0.225300
     19 F3           6.8570    -3.0520     4.2590 f          1 HUY      -0.225300
     20 C17          5.2020    -0.8720     1.9140 ca         1 HUY      -0.146000
     21 H1          -0.3610     0.0260     1.0210 hc         1 HUY       0.061033
     22 H2          -0.3610    -0.8970    -0.4880 hc         1 HUY       0.061033
     23 H3          -0.3610     0.8710    -0.5330 hc         1 HUY       0.061033
     24 H4           0.4670    -0.1510    -2.4880 ha         1 HUY       0.138000
     25 H5           1.7070    -0.1510    -4.6110 ha         1 HUY       0.136000
     26 H6           4.1650    -0.0060    -4.6150 ha         1 HUY       0.137000
     27 H7           5.4080     0.1480    -2.5000 ha         1 HUY       0.146000
     28 H8           4.6840     1.0680     0.2310 hn         1 HUY       0.456800
     29 H9           3.8290    -2.3040    -0.8300 ha         1 HUY       0.139000
     30 H10          4.2980    -4.3340     0.4860 ha         1 HUY       0.135000
     31 H11          5.3400    -4.1480     2.7120 ha         1 HUY       0.142000
     32 H12          5.4560     0.1010     2.3180 ha         1 HUY       0.145000
@<TRIPOS>BOND
     1    17    16 1
     2     1     2 1
     3    16    18 1
     4    16    19 1
     5    16    15 1
     6     3     2 2
     7     2     4 1
     8    15    20 ar
     9    15    14 ar
    10    20    11 ar
    11    14    13 ar
    12    11    10 1
    13    11    12 ar
    14    10     9 1
    15     4     5 ar
    16     4     9 ar
    17    13    12 ar
    18     5     6 ar
    19     9     8 ar
    20     6     7 ar
    21     8     7 ar
    22     1    21 1
    23     1    22 1
    24     1    23 1
    25     5    24 1
    26     6    25 1
    27     7    26 1
    28     8    27 1
    29    10    28 1
    30    12    29 1
    31    13    30 1
    32    14    31 1
    33    20    32 1
@<TRIPOS>SUBSTRUCTURE
     1 HUY         1 TEMP              0 ****  ****    0 ROOT
