@<TRIPOS>MOLECULE
molecule
   23    23     1     0     0
SMALL
bcc


@<TRIPOS>ATOM
      1 N            0.0000     0.0000     0.0000 nz         1 HV7      -0.812600
      2 CB           1.4690     0.0000     0.0000 c3         1 HV7       0.178100
      3 CG           1.9710     0.0000     1.4210 ca         1 HV7      -0.235300
      4 CD1          3.3340     0.0020     1.6740 ca         1 HV7       0.194100
      5 CE1          3.7950     0.0070     2.9810 ca         1 HV7      -0.196000
      6 CD2          1.0720     0.0000     2.4710 ca         1 HV7      -0.093000
      7 CE2          1.5290    -0.0000     3.7740 ca         1 HV7      -0.214000
      8 CZ           2.8920     0.0010     4.0320 ca         1 HV7       0.186100
      9 OE           3.3420     0.0010     5.3150 os         1 HV7      -0.266900
     10 CM           2.1880    -0.0000     6.1560 c3         1 HV7       0.096700
     11 OH           4.2170     0.0030     0.6410 oh         1 HV7      -0.510100
     12 HN1         -0.3340    -0.8170     0.4720 hn         1 HV7       0.457800
     13 HN2         -0.3340     0.8170     0.4720 hn         1 HV7       0.457800
     14 HB1          1.8300    -0.8850    -0.5110 hx         1 HV7       0.116700
     15 HB2          1.8300     0.8850    -0.5110 hx         1 HV7       0.116700
     16 HE1          4.8600     0.0080     3.1810 ha         1 HV7       0.179000
     17 HD2          0.0070    -0.0010     2.2710 ha         1 HV7       0.101000
     18 HE2          0.8230    -0.0020     4.5950 ha         1 HV7       0.168000
     19 HM1          1.5960    -0.8850     5.9570 h1         1 HV7       0.057367
     20 HM2          1.5950     0.8840     5.9560 h1         1 HV7       0.057367
     21 HM3          2.4980     0.0000     7.1940 h1         1 HV7       0.057367
     22 HOH          4.8360    -0.6990     0.7570 ho         1 HV7       0.449000
     23 HN3         -0.3340     0.0400    -0.9430 hn         1 HV7       0.457800
@<TRIPOS>BOND
     1     1     2 1
     2     1    12 1
     3     1    13 1
     4     2     3 1
     5     2    14 1
     6     2    15 1
     7     3     4 ar
     8     3     6 ar
     9     4     5 ar
    10     4    11 1
    11     5     8 ar
    12     5    16 1
    13     6     7 ar
    14     6    17 1
    15     7     8 ar
    16     7    18 1
    17     8     9 1
    18     9    10 1
    19    10    19 1
    20    10    20 1
    21    10    21 1
    22    11    22 1
    23    23     1 1
@<TRIPOS>SUBSTRUCTURE
     1 HV7         1 TEMP              0 ****  ****    0 ROOT
