@<TRIPOS>MOLECULE
molecule
   50    52     1     0     0
SMALL
bcc


@<TRIPOS>ATOM
      1 C01          0.0000     0.0000     0.0000 c3         1 HV9      -0.057800
      2 C02          1.5070     0.0000     0.0000 ca         1 HV9      -0.023300
      3 C03          2.1980     0.0000     1.1970 ca         1 HV9      -0.158500
      4 C04          3.5810     0.0010     1.1970 ca         1 HV9      -0.012500
      5 C05          4.2720     0.0020    -0.0000 ca         1 HV9      -0.321500
      6 S06          6.0330     0.0100    -0.0000 sy         1 HV9       1.428900
      7 O07          6.4370    -0.5300    -1.2510 o          1 HV9      -0.617800
      8 N08          6.5160     1.5940     0.0040 ns         1 HV9      -0.663300
      9 C09          6.2410     2.3800     1.0640 c          1 HV9       0.797100
     10 N10          6.6340     3.6680     1.0680 ns         1 HV9      -0.583900
     11 C11          6.3350     4.5220     2.2200 c3         1 HV9       0.123700
     12 C12          7.3540     5.6630     2.2890 c3         1 HV9      -0.098900
     13 C13          7.0000     6.5850     3.4590 c3         1 HV9       0.177300
     14 N14          5.6470     7.1240     3.2670 nh         1 HV9      -0.682300
     15 C15          5.3460     8.0630     4.2370 ca         1 HV9       0.878900
     16 N16          4.1590     8.6510     4.2200 nb         1 HV9      -0.716000
     17 C17          3.8360     9.5490     5.1370 ca         1 HV9       0.402600
     18 C18          2.4840    10.2140     5.1120 c3         1 HV9       0.583600
     19 F19          1.7020     9.6410     4.1020 f          1 HV9      -0.210633
     20 F20          1.8530    10.0340     6.3480 f          1 HV9      -0.210633
     21 F21          2.6400    11.5810     4.8620 f          1 HV9      -0.210633
     22 C22          4.7570     9.8720     6.1220 ca         1 HV9      -0.372600
     23 C23          5.9890     9.2370     6.1090 ca         1 HV9       0.487200
     24 N24          6.2480     8.3490     5.1640 nb         1 HV9      -0.764000
     25 C25          4.6460     6.0500     3.2440 c3         1 HV9       0.177300
     26 C26          4.9290     5.1120     2.0690 c3         1 HV9      -0.098900
     27 O27          5.6390     1.9250     2.0180 o          1 HV9      -0.634100
     28 O28          6.4370    -0.5360     1.2490 o          1 HV9      -0.617800
     29 C29          3.5800     0.0010    -1.1970 ca         1 HV9      -0.012500
     30 C30          2.1990    -0.0050    -1.1970 ca         1 HV9      -0.158500
     31 H1          -0.3610    -0.9840    -0.2750 hc         1 HV9       0.049033
     32 H2          -0.3610     0.2540     0.9890 hc         1 HV9       0.049033
     33 H3          -0.3610     0.7300    -0.7150 hc         1 HV9       0.049033
     34 H4           1.6560    -0.0010     2.1350 ha         1 HV9       0.137500
     35 H5           4.1230     0.0010     2.1350 ha         1 HV9       0.158500
     36 H6           7.0420     1.9590    -0.7650 hn         1 HV9       0.338500
     37 H7           7.1410     4.0390     0.2890 hn         1 HV9       0.314500
     38 H8           6.3840     3.9390     3.1310 h1         1 HV9       0.085700
     39 H9           8.3440     5.2520     2.4410 hc         1 HV9       0.062200
     40 H10          7.3270     6.2260     1.3640 hc         1 HV9       0.062200
     41 H11          7.0360     6.0230     4.3840 h1         1 HV9       0.060700
     42 H12          7.7100     7.4030     3.4990 h1         1 HV9       0.060700
     43 H13          4.5190    10.6030     6.8840 ha         1 HV9       0.161000
     44 H14          6.7320     9.4660     6.8640 h4         1 HV9       0.039100
     45 H15          4.6970     5.4910     4.1710 h1         1 HV9       0.060700
     46 H16          3.6590     6.4810     3.1300 h1         1 HV9       0.060700
     47 H17          4.2010     4.3100     2.0640 hc         1 HV9       0.062200
     48 H18          4.8690     5.6670     1.1410 hc         1 HV9       0.062200
     49 H19          4.1220    -0.0000    -2.1350 ha         1 HV9       0.158500
     50 H20          1.6570    -0.0060    -2.1360 ha         1 HV9       0.137500
@<TRIPOS>BOND
     1    19    18 1
     2    20    18 1
     3    21    18 1
     4    18    17 1
     5    22    17 ar
     6    22    23 ar
     7    17    16 ar
     8    16    15 ar
     9    23    24 ar
    10    15    24 ar
    11    15    14 1
    12    25    14 1
    13    25    26 1
    14    14    13 1
    15    26    11 1
    16    13    12 1
    17    11    12 1
    18    11    10 1
    19    10     9 1
    20     9    27 2
    21     9     8 1
    22     8     6 1
    23     7     6 2
    24     6    28 2
    25     6     5 1
    26     5    29 ar
    27     5     4 ar
    28    29    30 ar
    29     4     3 ar
    30    30     2 ar
    31     3     2 ar
    32     2     1 1
    33     1    31 1
    34     1    32 1
    35     1    33 1
    36     3    34 1
    37     4    35 1
    38     8    36 1
    39    10    37 1
    40    11    38 1
    41    12    39 1
    42    12    40 1
    43    13    41 1
    44    13    42 1
    45    22    43 1
    46    23    44 1
    47    25    45 1
    48    25    46 1
    49    26    47 1
    50    26    48 1
    51    29    49 1
    52    30    50 1
@<TRIPOS>SUBSTRUCTURE
     1 HV9         1 TEMP              0 ****  ****    0 ROOT
