@<TRIPOS>MOLECULE
HV9
   50    52     1     0     0
SMALL
bcc


@<TRIPOS>ATOM
      1 C01          0.0000     0.0000     0.0000 c3         1 HV9       0.055200
      2 C02          1.5070     0.0000     0.0000 ca         1 HV9      -0.032300
      3 C03          2.1980     0.0000     1.1970 ca         1 HV9      -0.141500
      4 C04          3.5810     0.0010     1.1970 ca         1 HV9       0.019500
      5 C05          4.2720     0.0020    -0.0000 ca         1 HV9      -0.167500
      6 S06          6.0330     0.0100    -0.0000 sy         1 HV9       1.051900
      7 O07          6.4370    -0.5300    -1.2510 o          1 HV9      -0.570800
      8 N08          6.5160     1.5940     0.0040 ns         1 HV9      -0.312300
      9 C09          6.2410     2.3800     1.0640 c          1 HV9       0.639100
     10 N10          6.6340     3.6680     1.0680 ns         1 HV9      -0.196900
     11 C11          6.3350     4.5220     2.2200 c3         1 HV9       0.022700
     12 C12          7.3540     5.6630     2.2890 c3         1 HV9      -0.043400
     13 C13          7.0000     6.5850     3.4590 c3         1 HV9       0.148300
     14 N14          5.6470     7.1240     3.2670 nh         1 HV9      -0.442300
     15 C15          5.3460     8.0630     4.2370 ca         1 HV9       0.701900
     16 N16          4.1590     8.6510     4.2200 nb         1 HV9      -0.579000
     17 C17          3.8360     9.5490     5.1370 ca         1 HV9       0.325600
     18 C18          2.4840    10.2140     5.1120 c3         1 HV9       0.539600
     19 F19          1.7020     9.6410     4.1020 f          1 HV9      -0.200300
     20 F20          1.8530    10.0340     6.3480 f          1 HV9      -0.200300
     21 F21          2.6400    11.5810     4.8620 f          1 HV9      -0.200300
     22 C22          4.7570     9.8720     6.1220 ca         1 HV9      -0.324600
     23 C23          5.9890     9.2370     6.1090 ca         1 HV9       0.472200
     24 N24          6.2480     8.3490     5.1640 nb         1 HV9      -0.647000
     25 C25          4.6460     6.0500     3.2440 c3         1 HV9       0.148300
     26 C26          4.9290     5.1120     2.0690 c3         1 HV9      -0.043400
     27 O27          5.6390     1.9250     2.0180 o          1 HV9      -0.679100
     28 O28          6.4370    -0.5360     1.2490 o          1 HV9      -0.570800
     29 C29          3.5800     0.0010    -1.1970 ca         1 HV9       0.019500
     30 C30          2.1990    -0.0050    -1.1970 ca         1 HV9      -0.141500
     31 H1          -0.3610    -0.9840    -0.2750 hc         1 HV9       0.011033
     32 H2          -0.3610     0.2540     0.9890 hc         1 HV9       0.011033
     33 H3          -0.3610     0.7300    -0.7150 hc         1 HV9       0.011033
     34 H4           1.6560    -0.0010     2.1350 ha         1 HV9       0.112000
     35 H5           4.1230     0.0010     2.1350 ha         1 HV9       0.131500
     36 H6           7.0420     1.9590    -0.7650 hn         1 HV9       0.221500
     37 H7           7.1410     4.0390     0.2890 hn         1 HV9       0.171500
     38 H8           6.3840     3.9390     3.1310 h1         1 HV9       0.062700
     39 H9           8.3440     5.2520     2.4410 hc         1 HV9       0.030200
     40 H10          7.3270     6.2260     1.3640 hc         1 HV9       0.030200
     41 H11          7.0360     6.0230     4.3840 h1         1 HV9       0.031200
     42 H12          7.7100     7.4030     3.4990 h1         1 HV9       0.031200
     43 H13          4.5190    10.6030     6.8840 ha         1 HV9       0.137000
     44 H14          6.7320     9.4660     6.8640 h4         1 HV9      -0.008900
     45 H15          4.6970     5.4910     4.1710 h1         1 HV9       0.031200
     46 H16          3.6590     6.4810     3.1300 h1         1 HV9       0.031200
     47 H17          4.2010     4.3100     2.0640 hc         1 HV9       0.030200
     48 H18          4.8690     5.6670     1.1410 hc         1 HV9       0.030200
     49 H19          4.1220    -0.0000    -2.1350 ha         1 HV9       0.131500
     50 H20          1.6570    -0.0060    -2.1360 ha         1 HV9       0.112000
@<TRIPOS>BOND
     1     1     2 1   
     2     1    31 1   
     3     1    32 1   
     4     1    33 1   
     5     2     3 ar  
     6     2    30 ar  
     7     3     4 ar  
     8     3    34 1   
     9     4     5 ar  
    10     4    35 1   
    11     5     6 1   
    12     5    29 ar  
    13     6     7 2   
    14     6     8 1   
    15     6    28 2   
    16     8     9 1   
    17     8    36 1   
    18     9    10 1   
    19     9    27 2   
    20    10    11 1   
    21    10    37 1   
    22    11    12 1   
    23    11    26 1   
    24    11    38 1   
    25    12    13 1   
    26    12    39 1   
    27    12    40 1   
    28    13    14 1   
    29    13    41 1   
    30    13    42 1   
    31    14    15 1   
    32    14    25 1   
    33    15    16 ar  
    34    15    24 ar  
    35    16    17 ar  
    36    17    18 1   
    37    17    22 ar  
    38    18    19 1   
    39    18    20 1   
    40    18    21 1   
    41    22    23 ar  
    42    22    43 1   
    43    23    24 ar  
    44    23    44 1   
    45    25    26 1   
    46    25    45 1   
    47    25    46 1   
    48    26    47 1   
    49    26    48 1   
    50    29    30 ar  
    51    29    49 1   
    52    30    50 1   
@<TRIPOS>SUBSTRUCTURE
     1 HV9         1 TEMP              0 ****  ****    0 ROOT
