@<TRIPOS>MOLECULE
HVG
   24    24     1     0     0
SMALL
bcc


@<TRIPOS>ATOM
      1 C7           0.0000     0.0000     0.0000 c          1 HVG       0.988200
      2 C6           4.2570     0.0000     0.0000 ca         1 HVG      -0.201300
      3 C1           2.1800    -0.0010    -1.2020 ca         1 HVG      -0.105000
      4 C5           2.1860    -0.0000     1.2180 ca         1 HVG      -0.077600
      5 C4           1.4790    -0.0000     0.0010 ca         1 HVG      -0.028600
      6 C3           3.5780     0.0000     1.2050 ca         1 HVG      -0.040000
      7 C2           3.5620    -0.0000    -1.1960 ca         1 HVG      -0.176000
      8 C9           6.2710    -1.3900    -0.2620 c          1 HVG       0.979600
      9 C10          5.7640     0.0060    -0.0090 c3         1 HVG      -0.105200
     10 N11          6.2430     0.9010    -1.0710 nz         1 HVG       0.060400
     11 O12         -0.6730     0.9550    -0.6700 o          1 HVG      -0.885300
     12 O13          2.1290    -0.1240     3.6620 o          1 HVG      -0.870300
     13 O15         -0.6080    -0.8590     0.6080 o          1 HVG      -0.885300
     14 O16          0.2450     0.1150     2.5130 o          1 HVG      -0.870300
     15 H1           1.6430    -0.0010    -2.1430 ha         1 HVG       0.100000
     16 H2           4.1290     0.0000     2.1380 ha         1 HVG       0.128000
     17 H3           4.1040    -0.0000    -2.1340 ha         1 HVG       0.056000
     18 H4           6.1290     0.3550     0.9490 hx         1 HVG       0.073700
     19 H5           6.0670     0.4840    -1.9640 hn         1 HVG       0.202800
     20 H6           5.7630     1.7770    -1.0120 hn         1 HVG       0.202800
     21 O14          6.3150    -2.2800     0.7420 o          1 HVG      -0.852300
     22 O17          6.6380    -1.7090    -1.3680 o          1 HVG      -0.852300
     23 H113         7.2270     1.0520    -0.9620 hn         1 HVG       0.202800
     24 C8           1.4540     0.0010     2.5030 c          1 HVG       0.956200
@<TRIPOS>BOND
     1     1     5 1   
     2     1    11 1   
     3     1    13 1   
     4     2     6 ar  
     5     2     7 ar  
     6     2     9 1   
     7     3     5 ar  
     8     3     7 ar  
     9     3    15 1   
    10     4     5 ar  
    11     4     6 ar  
    12     4    24 1   
    13     6    16 1   
    14     7    17 1   
    15     8     9 1   
    16     8    21 1   
    17     8    22 1   
    18     9    10 1   
    19     9    18 1   
    20    10    19 1   
    21    10    20 1   
    22    10    23 1   
    23    12    24 1   
    24    14    24 1   
@<TRIPOS>SUBSTRUCTURE
     1 HVG         1 TEMP              0 ****  ****    0 ROOT
