@<TRIPOS>MOLECULE
molecule
   24    24     1     0     0
SMALL
bcc


@<TRIPOS>ATOM
      1 C7           0.0000     0.0000     0.0000 c          1 HVG       0.901200
      2 C6           4.2570     0.0000     0.0000 ca         1 HVG      -0.188300
      3 C1           2.1800    -0.0010    -1.2020 ca         1 HVG      -0.133000
      4 C5           2.1860    -0.0000     1.2180 ca         1 HVG      -0.083600
      5 C4           1.4790    -0.0000     0.0010 ca         1 HVG      -0.037600
      6 C3           3.5780     0.0000     1.2050 ca         1 HVG      -0.069000
      7 C2           3.5620    -0.0000    -1.1960 ca         1 HVG      -0.180000
      8 C9           6.2710    -1.3900    -0.2620 c          1 HVG       0.890600
      9 C10          5.7640     0.0060    -0.0090 c3         1 HVG       0.051800
     10 N11          6.2430     0.9010    -1.0710 nz         1 HVG      -0.790600
     11 O12         -0.6730     0.9550    -0.6700 o          1 HVG      -0.835300
     12 O13          2.1290    -0.1240     3.6620 o          1 HVG      -0.824800
     13 O15         -0.6080    -0.8590     0.6080 o          1 HVG      -0.835300
     14 O16          0.2450     0.1150     2.5130 o          1 HVG      -0.824800
     15 H1           1.6430    -0.0010    -2.1430 ha         1 HVG       0.122000
     16 H2           4.1290     0.0000     2.1380 ha         1 HVG       0.149000
     17 H3           4.1040    -0.0000    -2.1340 ha         1 HVG       0.064000
     18 H4           6.1290     0.3550     0.9490 hx         1 HVG       0.090700
     19 H5           6.0670     0.4840    -1.9640 hn         1 HVG       0.425467
     20 H6           5.7630     1.7770    -1.0120 hn         1 HVG       0.425467
     21 O14          6.3150    -2.2800     0.7420 o          1 HVG      -0.809300
     22 O17          6.6380    -1.7090    -1.3680 o          1 HVG      -0.809300
     23 H113         7.2270     1.0520    -0.9620 hn         1 HVG       0.425467
     24 C8           1.4540     0.0010     2.5030 c          1 HVG       0.875200
@<TRIPOS>BOND
     1    10     9 1
     2    21     8 1
     3     9     8 1
     4     9     2 1
     5     8    22 1
     6     6     2 ar
     7     6     4 ar
     8     2     7 ar
     9    14    24 1
    10    24     4 1
    11    24    12 1
    12     4     5 ar
    13     7     3 ar
    14     5     3 ar
    15     5     1 1
    16     1    11 1
    17     1    13 1
    18     3    15 1
    19     6    16 1
    20     7    17 1
    21     9    18 1
    22    10    19 1
    23    10    20 1
    24    23    10 1
@<TRIPOS>SUBSTRUCTURE
     1 HVG         1 TEMP              0 ****  ****    0 ROOT
