@<TRIPOS>MOLECULE
molecule
   60    62     1     0     0
SMALL
bcc


@<TRIPOS>ATOM
      1 C13          0.0000     0.0000     0.0000 c3         1 HVM      -0.101400
      2 C15         -2.0400     0.0000     1.4420 c3         1 HVM      -0.077400
      3 C17         -4.0760    -0.1250     2.8860 c3         1 HVM      -0.095900
      4 C20         -2.6270     1.2920     5.0220 c3         1 HVM       0.099500
      5 C21         -2.1440     1.3090     3.5680 c3         1 HVM      -0.095900
      6 C22         -4.9150     1.8530     5.6860 c          1 HVM       0.677700
      7 C24         -4.9940     4.2190     6.4600 ca         1 HVM      -0.106000
      8 C26         -3.3790     5.0620     8.0160 ca         1 HVM      -0.153000
      9 C28         -3.2590     2.7670     7.3060 ca         1 HVM      -0.160000
     10 C01          7.4340    -0.0020    -6.2320 ca         1 HVM      -0.255300
     11 C02          6.4800    -0.0030    -7.2360 ca         1 HVM       0.428200
     12 N03          5.1920    -0.0040    -6.9540 nb         1 HVM      -0.690000
     13 C04          4.7520    -0.0030    -5.7130 ca         1 HVM       0.433200
     14 C05          5.6490    -0.0020    -4.6410 ca         1 HVM      -0.203100
     15 C06          7.0250    -0.0070    -4.9110 ca         1 HVM      -0.071000
     16 C07          5.1580    -0.0020    -3.2530 ce         1 HVM      -0.023200
     17 C08          3.8320    -0.0020    -3.0080 cf         1 HVM      -0.250200
     18 C09          3.3440    -0.0010    -1.6270 c          1 HVM       0.664300
     19 O10          4.1350     0.0000    -0.7020 o          1 HVM      -0.618100
     20 N11          2.0190    -0.0010    -1.3810 ns         1 HVM      -0.582900
     21 C12          1.5310     0.0000     0.0000 c3         1 HVM       0.112000
     22 C14         -0.5100     0.0000     1.4420 c3         1 HVM      -0.080400
     23 C16         -2.5510     0.0010     2.8840 c3         1 HVM      -0.071700
     24 C18         -4.5800    -0.1590     4.3320 c3         1 HVM       0.099500
     25 N19         -4.0720     1.0260     5.0370 n          1 HVM      -0.487800
     26 C23         -4.3790     2.9660     6.4990 ca         1 HVM      -0.119600
     27 C25         -4.4890     5.2580     7.2160 ca         1 HVM      -0.115000
     28 C27         -2.7630     3.8170     8.0650 ca         1 HVM       0.171600
     29 O29         -6.1160     1.6840     5.6040 o          1 HVM      -0.606100
     30 N30         -1.6420     3.6230     8.8750 nv         1 HVM      -0.960200
     31 H131        -0.3610    -0.8840    -0.5110 hc         1 HVM       0.045700
     32 H132        -0.3610     0.8840    -0.5110 hc         1 HVM       0.045700
     33 H151        -2.4000     0.8850     0.9310 hc         1 HVM       0.044700
     34 H152        -2.4010    -0.8840     0.9320 hc         1 HVM       0.044700
     35 H171        -4.3620    -1.0410     2.3830 hc         1 HVM       0.052200
     36 H172        -4.5080     0.7250     2.3730 hc         1 HVM       0.052200
     37 H201        -2.4310     2.2540     5.4800 h1         1 HVM       0.059950
     38 H202        -2.1090     0.5110     5.5660 h1         1 HVM       0.059950
     39 H212        -1.0660     1.4070     3.5470 hc         1 HVM       0.052200
     40 H211        -2.5980     2.1440     3.0470 hc         1 HVM       0.052200
     41 H241        -5.8640     4.3770     5.8350 ha         1 HVM       0.148000
     42 H261        -2.9890     5.8810     8.6080 ha         1 HVM       0.135000
     43 H281        -2.7810     1.7960     7.3430 ha         1 HVM       0.139000
     44 H021         6.7980    -0.0020    -8.2720 h4         1 HVM       0.025100
     45 H041         3.6860    -0.0020    -5.5220 h4         1 HVM       0.026100
     46 H061         7.7490    -0.0070    -4.1050 ha         1 HVM       0.144000
     47 H1           5.8610    -0.0010    -2.4290 ha         1 HVM       0.160000
     48 H2           3.1290    -0.0020    -3.8320 ha         1 HVM       0.128000
     49 H111         1.3690    -0.0110    -2.1420 hn         1 HVM       0.313500
     50 H122         1.8920    -0.8840     0.5110 h1         1 HVM       0.053700
     51 H121         1.8920     0.8850     0.5100 h1         1 HVM       0.053700
     52 H142        -0.1490     0.8840     1.9530 hc         1 HVM       0.046700
     53 H141        -0.1500    -0.8850     1.9530 hc         1 HVM       0.046700
     54 H161        -2.1210    -0.8340     3.4240 hc         1 HVM       0.051700
     55 H181        -5.6630    -0.1470     4.3380 h1         1 HVM       0.059950
     56 H182        -4.2180    -1.0550     4.8210 h1         1 HVM       0.059950
     57 H251        -4.9650     6.2300     7.1840 ha         1 HVM       0.134000
     58 H301        -1.6030     2.8380     9.4950 hn         1 HVM       0.429800
     59 H302        -0.8560     4.2380     8.7960 hn         1 HVM       0.429800
     60 H011         8.4890    -0.0040    -6.4790 ha         1 HVM       0.142000
@<TRIPOS>BOND
     1    30    28 1
     2    29     6 2
     3    28     9 ar
     4    28     8 ar
     5     9    26 ar
     6     8    27 ar
     7    26     6 1
     8    26     7 ar
     9     6    25 1
    10    27     7 ar
    11    25    24 1
    12    25     4 1
    13    24     3 1
    14     4     5 1
    15     3    23 1
    16     5    23 1
    17    23     2 1
    18     2    22 1
    19    22     1 1
    20    21     1 1
    21    21    20 1
    22    20    18 1
    23    19    18 2
    24    18    17 1
    25    17    16 2
    26    16    14 1
    27    14    13 ar
    28    14    15 ar
    29    13    12 ar
    30    15    10 ar
    31    12    11 ar
    32    10    11 ar
    33     1    31 1
    34     1    32 1
    35     2    33 1
    36     2    34 1
    37     3    35 1
    38     3    36 1
    39     4    37 1
    40     4    38 1
    41     5    39 1
    42     5    40 1
    43     7    41 1
    44     8    42 1
    45     9    43 1
    46    10    60 1
    47    11    44 1
    48    13    45 1
    49    15    46 1
    50    16    47 1
    51    17    48 1
    52    20    49 1
    53    21    50 1
    54    21    51 1
    55    22    52 1
    56    22    53 1
    57    23    54 1
    58    24    55 1
    59    24    56 1
    60    27    57 1
    61    30    58 1
    62    30    59 1
@<TRIPOS>SUBSTRUCTURE
     1 HVM         1 TEMP              0 ****  ****    0 ROOT
