@<TRIPOS>MOLECULE
HVM
   60    64     1     0     0
SMALL
bcc


@<TRIPOS>ATOM
      1 C13          0.0000     0.0000     0.0000 c3         1 HVM      -0.120000
      2 C15         -2.0400     0.0000     1.4420 c3         1 HVM      -0.103000
      3 C17         -4.0760    -0.1250     2.8860 c3         1 HVM      -0.122000
      4 C20         -2.6270     1.2920     5.0220 c3         1 HVM      -0.080500
      5 C21         -2.1440     1.3090     3.5680 c3         1 HVM      -0.122000
      6 C22         -4.9150     1.8530     5.6860 c2         1 HVM       0.286000
      7 C24         -4.9940     4.2190     6.4600 ca         1 HVM      -0.073000
      8 C26         -3.3790     5.0620     8.0160 ca         1 HVM      -0.127000
      9 C28         -3.2590     2.7670     7.3060 ca         1 HVM      -0.142000
     10 C01          7.4340    -0.0020    -6.2320 c2         1 HVM      -0.116000
     11 C02          6.4800    -0.0030    -7.2360 c2         1 HVM      -0.104000
     12 N03          5.1920    -0.0040    -6.9540 n2         1 HVM      -0.020000
     13 C04          4.7520    -0.0030    -5.7130 c2         1 HVM      -0.117000
     14 C05          5.6490    -0.0020    -4.6410 c3         1 HVM      -0.053000
     15 C06          7.0250    -0.0070    -4.9110 c2         1 HVM      -0.129000
     16 C07          5.1580    -0.0020    -3.2530 c2         1 HVM       0.028000
     17 C08          3.8320    -0.0020    -3.0080 c2         1 HVM      -0.159000
     18 C09          3.3440    -0.0010    -1.6270 c3         1 HVM       0.351000
     19 O10          4.1350     0.0000    -0.7020 o          1 HVM      -0.437000
     20 N11          2.0190    -0.0010    -1.3810 n7         1 HVM      -0.030000
     21 C12          1.5310     0.0000     0.0000 c3         1 HVM      -0.062000
     22 C14         -0.5100     0.0000     1.4420 c3         1 HVM      -0.109000
     23 C16         -2.5510     0.0010     2.8840 c3         1 HVM      -0.093000
     24 C18         -4.5800    -0.1590     4.3320 c3         1 HVM      -0.080500
     25 N19         -4.0720     1.0260     5.0370 n          1 HVM      -0.007000
     26 C23         -4.3790     2.9660     6.4990 ca         1 HVM      -0.103000
     27 C25         -4.4890     5.2580     7.2160 ca         1 HVM      -0.084000
     28 C27         -2.7630     3.8170     8.0650 ca         1 HVM      -0.049000
     29 O29         -6.1160     1.6840     5.6040 o          1 HVM      -0.408000
     30 N30         -1.6420     3.6230     8.8750 nv         1 HVM      -0.018000
     31 H131        -0.3610     0.8840    -0.5110 hc         1 HVM       0.057500
     32 H132        -0.3610    -0.8840    -0.5110 hc         1 HVM       0.057500
     33 H151        -2.4000     0.8850     0.9310 hc         1 HVM       0.058000
     34 H152        -2.4010    -0.8840     0.9320 hc         1 HVM       0.058000
     35 H171        -4.5080     0.7250     2.3730 hc         1 HVM       0.065500
     36 H172        -4.3620    -1.0410     2.3830 hc         1 HVM       0.065500
     37 H201        -2.4310     2.2540     5.4800 h1         1 HVM       0.075250
     38 H202        -2.1090     0.5120     5.5660 h1         1 HVM       0.075250
     39 H212        -2.5980     2.1440     3.0470 hc         1 HVM       0.065500
     40 H211        -1.0660     1.4070     3.5470 hc         1 HVM       0.065500
     41 H241        -5.8640     4.3770     5.8350 ha         1 HVM       0.120000
     42 H261        -2.9890     5.8810     8.6080 ha         1 HVM       0.108000
     43 H281        -2.7810     1.7960     7.3430 ha         1 HVM       0.119000
     44 H021         6.7980    -0.0020    -8.2720 h4         1 HVM       0.119000
     45 H041         3.6860    -0.0020    -5.5220 h4         1 HVM       0.132000
     46 H061         7.7490    -0.0070    -4.1050 ha         1 HVM       0.124000
     47 H1           5.1890    -0.8770    -3.8910 DU         1 HVM       0.086000
     48 H2           3.8020    -0.8760    -2.3690 DU         1 HVM       0.027000
     49 H111         1.3690     0.0000    -2.1420 hn         1 HVM       0.098000
     50 H122         1.8920    -0.8840     0.5110 h1         1 HVM       0.066500
     51 H121         1.8920     0.8850     0.5100 h1         1 HVM       0.066500
     52 H142        -0.1500    -0.8850     1.9530 hc         1 HVM       0.061000
     53 H141        -0.1490     0.8840     1.9530 hc         1 HVM       0.061000
     54 H161        -2.1210    -0.8340     3.4240 hc         1 HVM       0.071000
     55 H181        -4.2190    -1.0550     4.8210 h1         1 HVM       0.075250
     56 H182        -5.6630    -0.1470     4.3380 h1         1 HVM       0.075250
     57 H251        -4.9650     6.2300     7.1840 ha         1 HVM       0.104000
     58 H301        -1.6160     2.8570     9.5190 hn         1 HVM       0.066000
     59 H302        -0.8550     4.2370     8.7960 hn         1 HVM       0.066000
     60 H011         8.4890    -0.0040    -6.4790 ha         1 HVM       0.113000
@<TRIPOS>BOND
     1     1    21 1   
     2     1    22 1   
     3     1    31 1   
     4     1    32 1   
     5     2    22 1   
     6     2    23 1   
     7     2    33 1   
     8     2    34 1   
     9     3    23 1   
    10     3    24 1   
    11     3    35 1   
    12     3    36 1   
    13     4     5 1   
    14     4    25 1   
    15     4    37 1   
    16     4    38 1   
    17     5    23 1   
    18     5    39 1   
    19     5    40 1   
    20     6    25 1   
    21     6    26 1   
    22     6    29 1   
    23     7    26 1   
    24     7    27 1   
    25     7    41 1   
    26     8    27 1   
    27     8    28 1   
    28     8    42 1   
    29     9    26 1   
    30     9    28 1   
    31     9    43 1   
    32    10    11 1   
    33    10    15 1   
    34    10    60 1   
    35    11    12 1   
    36    11    44 1   
    37    12    13 1   
    38    13    14 1   
    39    13    45 1   
    40    14    15 1   
    41    14    16 1   
    42    14    47 1   
    43    15    46 1   
    44    16    17 1   
    45    16    47 1   
    46    17    18 1   
    47    17    48 1   
    48    18    19 1   
    49    18    20 1   
    50    18    48 1   
    51    20    21 1   
    52    20    49 1   
    53    21    50 1   
    54    21    51 1   
    55    22    52 1   
    56    22    53 1   
    57    23    54 1   
    58    24    25 1   
    59    24    55 1   
    60    24    56 1   
    61    27    57 1   
    62    28    30 1   
    63    30    58 1   
    64    30    59 1   
@<TRIPOS>SUBSTRUCTURE
     1 HVM         1 TEMP              0 ****  ****    0 ROOT
