@<TRIPOS>MOLECULE
molecule
   27    27     1     0     0
SMALL
bcc


@<TRIPOS>ATOM
      1 C10          0.0000     0.0000     0.0000 c          1 HVS       0.502900
      2 C12          1.4730     0.0000     0.0000 ca         1 HVS      -0.018600
      3 C13          2.1760     0.0000     1.2100 ca         1 HVS      -0.098500
      4 C01         -2.7560     1.2120     1.9710 c3         1 HVS      -0.099900
      5 C02         -2.0820     0.1080     1.1980 ce         1 HVS       0.192800
      6 C03         -2.8430    -0.8040     0.4890 cf         1 HVS      -0.472000
      7 C04         -4.2370    -0.7760     0.5860 ce         1 HVS       0.471300
      8 C06         -5.0510    -1.8270    -0.0830 c          1 HVS       0.814600
      9 C09         -0.6910     0.0070     1.1970 cf         1 HVS      -0.441200
     10 C14          3.5550    -0.0000     1.2010 ca         1 HVS      -0.174500
     11 C15          4.2430     0.0000     0.0010 ca         1 HVS      -0.174000
     12 C16          3.5550     0.0000    -1.2000 ca         1 HVS      -0.174500
     13 C17          2.1770    -0.0060    -1.2080 ca         1 HVS      -0.098500
     14 O05         -4.7870     0.1090     1.2190 o          1 HVS      -0.737300
     15 O07         -4.5040    -2.7090    -0.7120 o          1 HVS      -0.845300
     16 O08         -6.3940    -1.8010     0.0110 o          1 HVS      -0.845300
     17 O11         -0.6750     0.0000    -1.1690 o          1 HVS      -0.721100
     18 H131         1.9430    -0.0370     2.2680 ha         1 HVS       0.137000
     19 H012        -3.3680     1.8020     1.3000 hc         1 HVS       0.030367
     20 H011        -2.0040     1.8460     2.4250 hc         1 HVS       0.030367
     21 H013        -3.3800     0.7820     2.7450 hc         1 HVS       0.030367
     22 H031        -3.4430    -0.1250    -0.1050 ha         1 HVS       0.187000
     23 H091        -0.1480     0.0120     2.1340 ha         1 HVS       0.083000
     24 H141         4.1010    -0.0000     2.1370 ha         1 HVS       0.097500
     25 H151         5.3270     0.0000     0.0010 ha         1 HVS       0.089000
     26 H161         4.1010     0.0050    -2.1360 ha         1 HVS       0.097500
     27 H171         1.7870    -0.0100    -2.2190 ha         1 HVS       0.137000
@<TRIPOS>BOND
     1    15     8 1
     2     8    16 1
     3     8     7 1
     4     7    14 1
     5     7     6 2
     6     6     5 1
     7     5     4 1
     8     5     9 2
     9     9     1 1
    10    17     1 2
    11     1     2 1
    12     3     2 ar
    13     3    10 ar
    14     2    13 ar
    15    10    11 ar
    16    13    12 ar
    17    11    12 ar
    18     3    18 1
    19     4    19 1
    20     4    20 1
    21     4    21 1
    22     6    22 1
    23     9    23 1
    24    10    24 1
    25    11    25 1
    26    12    26 1
    27    13    27 1
@<TRIPOS>SUBSTRUCTURE
     1 HVS         1 TEMP              0 ****  ****    0 ROOT
