@<TRIPOS>MOLECULE
molecule
   62    63     1     0     0
SMALL
bcc


@<TRIPOS>ATOM
      1 C1           0.0000     0.0000     0.0000 c2         1 HVW      -0.192000
      2 C2           1.3100     0.0000     0.0000 c2         1 HVW      -0.207200
      3 C3           2.0630     0.0000     1.3050 c3         1 HVW       0.143200
      4 C7           4.7350    -2.4960     2.4360 c3         1 HVW       0.078500
      5 C8           3.9530    -3.8040     2.2980 c3         1 HVW      -0.060400
      6 C9           4.9300    -4.9790     2.2420 c3         1 HVW      -0.075700
      7 C10          4.1490    -6.2940     2.2720 c3         1 HVW      -0.089600
      8 C11          5.7470    -4.9020     0.9510 c3         1 HVW      -0.089600
      9 C13          6.5600    -1.5130     3.6870 c3         1 HVW       0.170800
     10 C14          7.8420    -2.1830     3.1910 c3         1 HVW       0.621900
     11 C19          6.7140    -1.8300     6.1650 ca         1 HVW      -0.097500
     12 C20          6.9140    -1.3440     7.4410 ca         1 HVW      -0.114500
     13 C21          7.1780     0.0110     7.6340 cp         1 HVW      -0.039000
     14 C22          7.0460     0.3690     5.2640 ca         1 HVW      -0.097500
     15 C24          7.3950     0.5390     9.0040 cp         1 HVW       0.021000
     16 C27          7.8010     1.5240    11.5580 ca         1 HVW      -0.299500
     17 C33          9.8480     2.0070    13.4470 c3         1 HVW      -0.226300
     18 N4           2.9930    -1.1310     1.3320 ns         1 HVW      -0.575900
     19 C5           3.7780    -1.3330     2.4080 c          1 HVW       0.622100
     20 O6           3.7140    -0.5780     3.3560 o          1 HVW      -0.619100
     21 N12          5.4690    -2.4960     3.7080 n7         1 HVW      -0.788200
     22 F16          7.6790    -2.5730     1.8570 f          1 HVW      -0.225300
     23 F17          8.9070    -1.2810     3.2850 f          1 HVW      -0.225300
     24 C18          6.7800    -0.9760     5.0780 ca         1 HVW      -0.101300
     25 C23          7.2370     0.8680     6.5370 ca         1 HVW      -0.114500
     26 C25          7.3420    -0.3190    10.1010 ca         1 HVW      -0.143000
     27 C26          7.5450     0.1780    11.3720 ca         1 HVW      -0.028000
     28 C28          7.6580     1.8930     9.1970 ca         1 HVW      -0.143000
     29 C29          7.8590     2.3790    10.4740 ca         1 HVW      -0.028000
     30 S30          8.0590     2.1510    13.1850 sy         1 HVW       1.191300
     31 O31          7.6770     3.5170    13.0990 o          1 HVW      -0.618300
     32 O32          7.3570     1.2450    14.0260 o          1 HVW      -0.618300
     33 H58         -0.5420     0.0000    -0.9380 ha         1 HVW       0.118500
     34 H57         -0.5420     0.0000     0.9380 ha         1 HVW       0.118500
     35 H1           1.8510     0.0000    -0.9380 ha         1 HVW       0.127000
     36 H55          1.3620    -0.0900     2.1270 h1         1 HVW       0.059700
     37 H56          2.6170     0.9260     1.4030 h1         1 HVW       0.059700
     38 H44          5.4360    -2.4060     1.6150 h1         1 HVW       0.091700
     39 H46          3.2950    -3.9230     3.1500 hc         1 HVW       0.048700
     40 H45          3.3650    -3.7800     1.3890 hc         1 HVW       0.048700
     41 H47          5.5970    -4.9360     3.0950 hc         1 HVW       0.075700
     42 H49          3.4720    -6.3320     1.4270 hc         1 HVW       0.034367
     43 H50          3.5800    -6.3550     3.1920 hc         1 HVW       0.034367
     44 H48          4.8400    -7.1270     2.2190 hc         1 HVW       0.034367
     45 H52          6.8030    -4.8800     1.1930 hc         1 HVW       0.034367
     46 H53          5.4820    -4.0030     0.4090 hc         1 HVW       0.034367
     47 H51          5.5360    -5.7690     0.3370 hc         1 HVW       0.034367
     48 H42          6.2990    -0.6980     3.0230 h1         1 HVW       0.076700
     49 H40          6.5090    -2.8820     6.0130 ha         1 HVW       0.145000
     50 H41          6.8620    -2.0140     8.2900 ha         1 HVW       0.138000
     51 H39          7.0920     1.0340     4.4110 ha         1 HVW       0.145000
     52 H59         10.0990     2.3750    14.4350 h1         1 HVW       0.098033
     53 H61         10.3700     2.5920    12.7000 h1         1 HVW       0.098033
     54 H60         10.1430     0.9680    13.3630 h1         1 HVW       0.098033
     55 H54          3.0730    -1.7320     0.5350 hn         1 HVW       0.318500
     56 H43          4.8410    -2.2810     4.4560 hn         1 HVW       0.397800
     57 H38          7.4440     1.9210     6.6810 ha         1 HVW       0.138000
     58 H37          7.1410    -1.3740     9.9560 ha         1 HVW       0.141000
     59 H34          7.5020    -0.4870    12.2260 ha         1 HVW       0.151500
     60 H36          7.7030     2.5640     8.3480 ha         1 HVW       0.141000
     61 H35          8.0620     3.4330    10.6250 ha         1 HVW       0.151500
     62 F15          8.1140    -3.3080     3.9770 f          1 HVW      -0.225300
@<TRIPOS>BOND
     1     1     2 2
     2     2     3 1
     3     3    18 1
     4    18    19 1
     5     8     6 1
     6    22    10 1
     7    19     4 1
     8    19    20 2
     9     4     5 1
    10     4    21 1
    11     5     6 1
    12     6     7 1
    13    23    10 1
    14    10    62 1
    15    10     9 1
    16    21     9 1
    17     9    24 1
    18    24    14 ar
    19    24    11 ar
    20    14    25 ar
    21    11    12 ar
    22    25    13 ar
    23    12    13 ar
    24    13    15 1
    25    15    28 ar
    26    15    26 ar
    27    28    29 ar
    28    26    27 ar
    29    29    16 ar
    30    27    16 ar
    31    16    30 1
    32    30    31 2
    33    30    32 2
    34    30    17 1
    35     1    33 1
    36     1    34 1
    37     2    35 1
    38     3    36 1
    39     3    37 1
    40     4    38 1
    41     5    39 1
    42     5    40 1
    43     6    41 1
    44     7    42 1
    45     7    43 1
    46     7    44 1
    47     8    45 1
    48     8    46 1
    49     8    47 1
    50     9    48 1
    51    11    49 1
    52    12    50 1
    53    14    51 1
    54    17    52 1
    55    17    53 1
    56    17    54 1
    57    18    55 1
    58    21    56 1
    59    25    57 1
    60    26    58 1
    61    27    59 1
    62    28    60 1
    63    29    61 1
@<TRIPOS>SUBSTRUCTURE
     1 HVW         1 TEMP              0 ****  ****    0 ROOT
