@<TRIPOS>MOLECULE
HVW
   62    63     1     0     0
SMALL
bcc


@<TRIPOS>ATOM
      1 C1           0.0000     0.0000     0.0000 c2         1 HVW      -0.126000
      2 C2           1.3100     0.0000     0.0000 c2         1 HVW      -0.193200
      3 C3           2.0630     0.0000     1.3050 c3         1 HVW       0.091200
      4 C7           4.7350    -2.4960     2.4360 c3         1 HVW       0.022500
      5 C8           3.9530    -3.8040     2.2980 c3         1 HVW      -0.010400
      6 C9           4.9300    -4.9790     2.2420 c3         1 HVW      -0.058700
      7 C10          4.1490    -6.2940     2.2720 c3         1 HVW      -0.000100
      8 C11          5.7470    -4.9020     0.9510 c3         1 HVW      -0.000100
      9 C13          6.5600    -1.5130     3.6870 c3         1 HVW       0.122800
     10 C14          7.8420    -2.1830     3.1910 c3         1 HVW       0.575900
     11 C19          6.7140    -1.8300     6.1650 ca         1 HVW      -0.070000
     12 C20          6.9140    -1.3440     7.4410 ca         1 HVW      -0.091500
     13 C21          7.1780     0.0110     7.6340 cp         1 HVW      -0.035000
     14 C22          7.0460     0.3690     5.2640 ca         1 HVW      -0.070000
     15 C24          7.3950     0.5390     9.0040 cp         1 HVW       0.022000
     16 C27          7.8010     1.5240    11.5580 ca         1 HVW      -0.160500
     17 C33          9.8480     2.0070    13.4470 c3         1 HVW       0.028700
     18 N4           2.9930    -1.1310     1.3320 ns         1 HVW      -0.179900
     19 C5           3.7780    -1.3330     2.4080 c          1 HVW       0.540100
     20 O6           3.7140    -0.5780     3.3560 o          1 HVW      -0.657100
     21 N12          5.4690    -2.4960     3.7080 n7         1 HVW      -0.559200
     22 F16          7.6790    -2.5730     1.8570 f          1 HVW      -0.208633
     23 F17          8.9070    -1.2810     3.2850 f          1 HVW      -0.208633
     24 C18          6.7800    -0.9760     5.0780 ca         1 HVW      -0.109300
     25 C23          7.2370     0.8680     6.5370 ca         1 HVW      -0.091500
     26 C25          7.3420    -0.3190    10.1010 ca         1 HVW      -0.133000
     27 C26          7.5450     0.1780    11.3720 ca         1 HVW       0.006000
     28 C28          7.6580     1.8930     9.1970 ca         1 HVW      -0.133000
     29 C29          7.8590     2.3790    10.4740 ca         1 HVW       0.006000
     30 S30          8.0590     2.1510    13.1850 sy         1 HVW       0.873300
     31 O31          7.6770     3.5170    13.0990 o          1 HVW      -0.588800
     32 O32          7.3570     1.2450    14.0260 o          1 HVW      -0.588800
     33 H58         -0.5420    -0.0000     0.9380 ha         1 HVW       0.087500
     34 H57         -0.5420     0.0000    -0.9380 ha         1 HVW       0.087500
     35 H1           1.8510     0.0000    -0.9380 ha         1 HVW       0.106000
     36 H55          2.6170     0.9260     1.4030 h1         1 HVW       0.030700
     37 H56          1.3620    -0.0900     2.1270 h1         1 HVW       0.030700
     38 H44          5.4360    -2.4060     1.6150 h1         1 HVW       0.065700
     39 H46          3.2950    -3.9230     3.1500 hc         1 HVW       0.020700
     40 H45          3.3650    -3.7800     1.3890 hc         1 HVW       0.020700
     41 H47          5.5970    -4.9360     3.0950 hc         1 HVW       0.049700
     42 H49          4.8390    -7.1260     2.2050 hc         1 HVW       0.004867
     43 H50          3.4620    -6.3260     1.4350 hc         1 HVW       0.004867
     44 H48          3.5920    -6.3620     3.1990 hc         1 HVW       0.004867
     45 H52          5.4820    -4.0020     0.4090 hc         1 HVW       0.004867
     46 H53          5.5360    -5.7690     0.3370 hc         1 HVW       0.004867
     47 H51          6.8030    -4.8800     1.1930 hc         1 HVW       0.004867
     48 H42          6.2990    -0.6980     3.0230 h1         1 HVW       0.057700
     49 H40          6.5090    -2.8820     6.0130 ha         1 HVW       0.117500
     50 H41          6.8620    -2.0140     8.2900 ha         1 HVW       0.114500
     51 H39          7.0920     1.0340     4.4110 ha         1 HVW       0.117500
     52 H59         10.0990     2.3720    14.4360 h1         1 HVW       0.059367
     53 H61         10.3700     2.5940    12.7020 h1         1 HVW       0.059367
     54 H60         10.1430     0.9680    13.3600 h1         1 HVW       0.059367
     55 H54          3.0770    -1.7280     0.5330 hn         1 HVW       0.180500
     56 H43          4.8410    -2.2810     4.4560 hn         1 HVW       0.302800
     57 H38          7.4440     1.9210     6.6810 ha         1 HVW       0.114500
     58 H37          7.1410    -1.3740     9.9560 ha         1 HVW       0.118000
     59 H34          7.5020    -0.4870    12.2260 ha         1 HVW       0.123000
     60 H36          7.7030     2.5640     8.3480 ha         1 HVW       0.118000
     61 H35          8.0620     3.4330    10.6250 ha         1 HVW       0.123000
     62 F15          8.1140    -3.3080     3.9770 f          1 HVW      -0.208633
@<TRIPOS>BOND
     1     1     2 2   
     2     1    33 1   
     3     1    34 1   
     4     2     3 1   
     5     2    35 1   
     6     3    18 1   
     7     3    36 1   
     8     3    37 1   
     9     4     5 1   
    10     4    19 1   
    11     4    21 1   
    12     4    38 1   
    13     5     6 1   
    14     5    39 1   
    15     5    40 1   
    16     6     7 1   
    17     6     8 1   
    18     6    41 1   
    19     7    42 1   
    20     7    43 1   
    21     7    44 1   
    22     8    45 1   
    23     8    46 1   
    24     8    47 1   
    25     9    10 1   
    26     9    21 1   
    27     9    24 1   
    28     9    48 1   
    29    10    22 1   
    30    10    23 1   
    31    10    62 1   
    32    11    12 ar  
    33    11    24 ar  
    34    11    49 1   
    35    12    13 ar  
    36    12    50 1   
    37    13    15 1   
    38    13    25 ar  
    39    14    24 ar  
    40    14    25 ar  
    41    14    51 1   
    42    15    26 ar  
    43    15    28 ar  
    44    16    27 ar  
    45    16    29 ar  
    46    16    30 1   
    47    17    30 1   
    48    17    52 1   
    49    17    53 1   
    50    17    54 1   
    51    18    19 1   
    52    18    55 1   
    53    19    20 2   
    54    21    56 1   
    55    25    57 1   
    56    26    27 ar  
    57    26    58 1   
    58    27    59 1   
    59    28    29 ar  
    60    28    60 1   
    61    29    61 1   
    62    30    31 2   
    63    30    32 2   
@<TRIPOS>SUBSTRUCTURE
     1 HVW         1 TEMP              0 ****  ****    0 ROOT
