@<TRIPOS>MOLECULE
HW0
   58    60     1     0     0
SMALL
bcc


@<TRIPOS>ATOM
      1 N22          0.0000     0.0000     0.0000 nv         1 HW0      -0.629500
      2 C22          1.3900     0.0000     0.0000 ca         1 HW0       0.499200
      3 C23          2.0810     0.0000     1.2070 ca         1 HW0      -0.248300
      4 C24          3.4630     0.0010     1.1920 ca         1 HW0      -0.053000
      5 C25          4.1120    -0.0010    -0.0350 ca         1 HW0      -0.237300
      6 N21          2.0450    -0.0070    -1.1500 nb         1 HW0      -0.597000
      7 C26          3.3640    -0.0010    -1.1950 ca         1 HW0       0.391600
      8 C14          4.0630    -0.0020    -2.5310 c3         1 HW0      -0.070700
      9 C13          3.5660    -1.1840    -3.3660 c3         1 HW0      -0.026400
     10 C12          4.2760    -1.1850    -4.7210 c3         1 HW0      -0.025400
     11 C11          3.7790    -2.3670    -5.5560 c3         1 HW0      -0.036400
     12 C10          4.4890    -2.3680    -6.9110 c3         1 HW0       0.206400
     13 O09          4.0250    -3.4720    -7.6920 os         1 HW0      -0.407600
     14 C4'          4.6290    -3.5660    -8.9840 c3         1 HW0       0.177100
     15 C5'          5.8420    -4.5180    -8.9420 c3         1 HW0       0.108800
     16 N1'          5.7990    -5.2370   -10.2400 n7         1 HW0      -0.580200
     17 C2'          4.3540    -5.4950   -10.4660 c3         1 HW0       0.137800
     18 C3'          3.6490    -4.2090    -9.9870 c3         1 HW0      -0.051700
     19 C08          2.3290    -4.5520    -9.2950 c3         1 HW0      -0.065700
     20 C06          1.3450    -5.0650   -10.3140 ca         1 HW0       0.432600
     21 N01          1.0650    -4.3320   -11.3760 nb         1 HW0      -0.657000
     22 C02          0.2080    -4.7430   -12.2980 ca         1 HW0       0.516200
     23 N02         -0.0570    -3.9370   -13.3990 nv         1 HW0      -0.536500
     24 C03         -0.4300    -5.9720   -12.1730 ca         1 HW0      -0.314300
     25 C04         -0.1580    -6.7630   -11.0720 ca         1 HW0      -0.004300
     26 C05          0.7530    -6.2980   -10.1300 ca         1 HW0      -0.293300
     27 C07         -0.8280    -8.1010   -10.8990 c3         1 HW0       0.060200
     28 H1          -0.5000     0.7850    -0.3670 hn         1 HW0       0.274300
     29 H2          -0.5000    -0.7910     0.3540 hn         1 HW0       0.274300
     30 H3           1.5420     0.0010     2.1470 ha         1 HW0       0.116000
     31 H4           4.0270     0.0010     2.1170 ha         1 HW0       0.105000
     32 H5           5.1950     0.0020    -0.0820 ha         1 HW0       0.115000
     33 H6           3.8470     0.9230    -3.0520 hc         1 HW0       0.021200
     34 H7           5.1320    -0.0910    -2.3800 hc         1 HW0       0.021200
     35 H8           2.4970    -1.0950    -3.5180 hc         1 HW0       0.024700
     36 H9           3.7810    -2.1100    -2.8450 hc         1 HW0       0.024700
     37 H10          5.3450    -1.2740    -4.5690 hc         1 HW0       0.012700
     38 H11          4.0610    -0.2600    -5.2420 hc         1 HW0       0.012700
     39 H12          2.7100    -2.2780    -5.7080 hc         1 HW0       0.023700
     40 H13          3.9940    -3.2920    -5.0350 hc         1 HW0       0.023700
     41 H14          4.2740    -1.4420    -7.4320 h1         1 HW0      -0.008300
     42 H15          5.5580    -2.4570    -6.7590 h1         1 HW0      -0.008300
     43 H16          4.9330    -2.5870    -9.3340 h1         1 HW0       0.019700
     44 H17          6.7620    -3.9510    -8.8560 h1         1 HW0       0.017200
     45 H18          5.7430    -5.2170    -8.1200 h1         1 HW0       0.017200
     46 H19          6.2840    -6.1080   -10.1550 hn         1 HW0       0.250800
     47 H21          4.0270    -6.3450    -9.8790 h1         1 HW0       0.015700
     48 H22          4.1620    -5.6590   -11.5190 h1         1 HW0       0.015700
     49 H23          3.4800    -3.5420   -10.8230 hc         1 HW0       0.056700
     50 H24          1.9280    -3.6630    -8.8210 hc         1 HW0       0.035200
     51 H25          2.5010    -5.3140    -8.5440 hc         1 HW0       0.035200
     52 H26         -0.6930    -4.2490   -14.1060 hn         1 HW0       0.268800
     53 H27          0.3830    -3.0420   -13.4820 hn         1 HW0       0.268800
     54 H28         -1.1320    -6.3050   -12.9270 ha         1 HW0       0.118000
     55 H29          0.9880    -6.8930    -9.2560 ha         1 HW0       0.120000
     56 H30         -1.7130    -8.1450   -11.5220 hc         1 HW0       0.009367
     57 H31         -0.1420    -8.8880   -11.1900 hc         1 HW0       0.009367
     58 H32         -1.1090    -8.2330    -9.8610 hc         1 HW0       0.009367
@<TRIPOS>BOND
     1     1     2 1   
     2     1    28 1   
     3     1    29 1   
     4     2     3 ar  
     5     2     6 ar  
     6     3     4 ar  
     7     3    30 1   
     8     4     5 ar  
     9     4    31 1   
    10     5     7 ar  
    11     5    32 1   
    12     6     7 ar  
    13     7     8 1   
    14     8     9 1   
    15     8    33 1   
    16     8    34 1   
    17     9    10 1   
    18     9    35 1   
    19     9    36 1   
    20    10    11 1   
    21    10    37 1   
    22    10    38 1   
    23    11    12 1   
    24    11    39 1   
    25    11    40 1   
    26    12    13 1   
    27    12    41 1   
    28    12    42 1   
    29    13    14 1   
    30    14    15 1   
    31    14    18 1   
    32    14    43 1   
    33    15    16 1   
    34    15    44 1   
    35    15    45 1   
    36    16    17 1   
    37    16    46 1   
    38    17    18 1   
    39    17    47 1   
    40    17    48 1   
    41    18    19 1   
    42    18    49 1   
    43    19    20 1   
    44    19    50 1   
    45    19    51 1   
    46    20    21 ar  
    47    20    26 ar  
    48    21    22 ar  
    49    22    23 1   
    50    22    24 ar  
    51    23    52 1   
    52    23    53 1   
    53    24    25 ar  
    54    24    54 1   
    55    25    26 ar  
    56    25    27 1   
    57    26    55 1   
    58    27    56 1   
    59    27    57 1   
    60    27    58 1   
@<TRIPOS>SUBSTRUCTURE
     1 HW0         1 TEMP              0 ****  ****    0 ROOT
