@<TRIPOS>MOLECULE
molecule
   61    63     1     0     0
SMALL
bcc


@<TRIPOS>ATOM
      1 N02          0.0000     0.0000     0.0000 nv         1 HW1      -1.041500
      2 C02          1.3900     0.0000     0.0000 ca         1 HW1       0.700200
      3 C03          2.0790     0.0000     1.2090 ca         1 HW1      -0.307300
      4 C04          3.4620    -0.0000     1.1940 ca         1 HW1      -0.020300
      5 C07          4.2460    -0.0010     2.4810 c3         1 HW1      -0.049800
      6 C05          4.1120    -0.0010    -0.0330 ca         1 HW1      -0.293300
      7 N01          2.0460    -0.0050    -1.1500 nb         1 HW1      -0.754000
      8 C06          3.3650    -0.0020    -1.1940 ca         1 HW1       0.463600
      9 C08          4.0650    -0.0080    -2.5280 c3         1 HW1      -0.111700
     10 C3'          3.5730    -1.1970    -3.3560 c3         1 HW1      -0.062700
     11 C2'          4.0150    -2.5240    -2.7040 c3         1 HW1       0.138800
     12 N1'          4.3460    -3.4120    -3.8490 n7         1 HW1      -0.791200
     13 C5'          5.0280    -2.5170    -4.8190 c3         1 HW1       0.111800
     14 C4'          4.2390    -1.1920    -4.7480 c3         1 HW1       0.139100
     15 O09          5.1270    -0.0790    -4.8700 os         1 HW1      -0.428600
     16 C10          5.2590     0.4160    -6.2040 c3         1 HW1       0.135400
     17 C11          6.2280     1.6000    -6.2150 c3         1 HW1      -0.080400
     18 C12          6.3690     2.1290    -7.6440 c3         1 HW1      -0.083400
     19 C13          7.3380     3.3130    -7.6560 c3         1 HW1      -0.074400
     20 C14          7.4800     3.8420    -9.0840 c3         1 HW1      -0.125700
     21 C26          8.4340     5.0090    -9.0950 ca         1 HW1       0.479600
     22 N21          8.2110     6.0400    -8.3020 nb         1 HW1      -0.770000
     23 C22          9.0230     7.0860    -8.2790 ca         1 HW1       0.711200
     24 N22          8.7490     8.1520    -7.4290 nv         1 HW1      -1.015500
     25 C23         10.1460     7.1280    -9.0980 ca         1 HW1      -0.329300
     26 C24         10.4060     6.0610    -9.9400 ca         1 HW1      -0.004300
     27 C25          9.5330     4.9820    -9.9300 ca         1 HW1      -0.311300
     28 C27         11.6160     6.0670   -10.8390 c3         1 HW1      -0.049800
     29 H1          -0.5000     0.5580    -0.6640 hn         1 HW1       0.436300
     30 H2          -0.5000    -0.5950     0.6300 hn         1 HW1       0.436300
     31 H3           1.5470     0.1830     2.1350 ha         1 HW1       0.138000
     32 H4           3.6240     0.3800     3.2830 hc         1 HW1       0.046033
     33 H5           4.5560    -1.0120     2.7140 hc         1 HW1       0.046033
     34 H6           5.1200     0.6290     2.3720 hc         1 HW1       0.046033
     35 H7           5.1940     0.0000    -0.0790 ha         1 HW1       0.137000
     36 H8           3.8470     0.9140    -3.0550 hc         1 HW1       0.066700
     37 H9           5.1340    -0.0920    -2.3750 hc         1 HW1       0.066700
     38 H10          2.4950    -1.1710    -3.4570 hc         1 HW1       0.085700
     39 H11          4.8900    -2.3670    -2.0850 h1         1 HW1       0.044700
     40 H12          3.2040    -2.9460    -2.1230 h1         1 HW1       0.044700
     41 H13          4.9820    -4.1230    -3.5460 hn         1 HW1       0.345800
     42 H15          6.0580    -2.3580    -4.5240 h1         1 HW1       0.045700
     43 H16          4.9740    -2.9350    -5.8170 h1         1 HW1       0.045700
     44 H17          3.4830    -1.1650    -5.5240 h1         1 HW1       0.051700
     45 H18          5.6420    -0.3700    -6.8440 h1         1 HW1       0.023700
     46 H19          4.2910     0.7380    -6.5670 h1         1 HW1       0.023700
     47 H20          5.8460     2.3850    -5.5750 hc         1 HW1       0.054200
     48 H21          7.1970     1.2770    -5.8530 hc         1 HW1       0.054200
     49 H22          5.4010     2.4510    -8.0070 hc         1 HW1       0.040700
     50 H23          6.7510     1.3430    -8.2840 hc         1 HW1       0.040700
     51 H24          8.3070     2.9910    -7.2920 hc         1 HW1       0.054200
     52 H25          6.9560     4.0990    -7.0160 hc         1 HW1       0.054200
     53 H26          6.5120     4.1640    -9.4470 hc         1 HW1       0.054200
     54 H27          7.8630     3.0570    -9.7240 hc         1 HW1       0.054200
     55 H28          7.8980     8.1660    -6.9030 hn         1 HW1       0.438300
     56 H29          9.4110     8.8960    -7.3300 hn         1 HW1       0.438300
     57 H30         10.8080     7.9860    -9.0790 ha         1 HW1       0.133000
     58 H31          9.7080     4.1310   -10.5770 ha         1 HW1       0.136000
     59 H32         11.8770     7.0880   -11.0860 hc         1 HW1       0.046700
     60 H33         12.4470     5.5950   -10.3290 hc         1 HW1       0.046700
     61 H34         11.3920     5.5210   -11.7470 hc         1 HW1       0.046700
@<TRIPOS>BOND
     1    28    26 1
     2    26    27 ar
     3    26    25 ar
     4    27    21 ar
     5    25    23 ar
     6    21    20 1
     7    21    22 ar
     8    23    22 ar
     9    23    24 1
    10    20    19 1
    11    17    18 1
    12    17    16 1
    13    19    18 1
    14    16    15 1
    15    15    14 1
    16     9    10 1
    17     9     8 1
    18    14    10 1
    19    14    13 1
    20    10    11 1
    21     8     7 ar
    22     8     6 ar
    23     7     2 ar
    24     6     4 ar
    25    13    12 1
    26     2     1 1
    27     2     3 ar
    28     4     3 ar
    29     4     5 1
    30    11    12 1
    31     1    29 1
    32     1    30 1
    33     3    31 1
    34     5    32 1
    35     5    33 1
    36     5    34 1
    37     6    35 1
    38     9    36 1
    39     9    37 1
    40    10    38 1
    41    11    39 1
    42    11    40 1
    43    12    41 1
    44    13    42 1
    45    13    43 1
    46    14    44 1
    47    16    45 1
    48    16    46 1
    49    17    47 1
    50    17    48 1
    51    18    49 1
    52    18    50 1
    53    19    51 1
    54    19    52 1
    55    20    53 1
    56    20    54 1
    57    24    55 1
    58    24    56 1
    59    25    57 1
    60    27    58 1
    61    28    59 1
    62    28    60 1
    63    28    61 1
@<TRIPOS>SUBSTRUCTURE
     1 HW1         1 TEMP              0 ****  ****    0 ROOT
