@<TRIPOS>MOLECULE
HW1
   61    63     1     0     0
SMALL
bcc


@<TRIPOS>ATOM
      1 N02          0.0000     0.0000     0.0000 nv         1 HW1      -0.579500
      2 C02          1.3900     0.0000     0.0000 ca         1 HW1       0.510200
      3 C03          2.0790     0.0000     1.2090 ca         1 HW1      -0.286300
      4 C04          3.4620    -0.0000     1.1940 ca         1 HW1      -0.021300
      5 C07          4.2460    -0.0010     2.4810 c3         1 HW1       0.061200
      6 C05          4.1120    -0.0010    -0.0330 ca         1 HW1      -0.269300
      7 N01          2.0460    -0.0050    -1.1500 nb         1 HW1      -0.634000
      8 C06          3.3650    -0.0020    -1.1940 ca         1 HW1       0.416600
      9 C08          4.0650    -0.0080    -2.5280 c3         1 HW1      -0.064700
     10 C3'          3.5730    -1.1970    -3.3560 c3         1 HW1      -0.051700
     11 C2'          4.0150    -2.5240    -2.7040 c3         1 HW1       0.137800
     12 N1'          4.3460    -3.4120    -3.8490 n7         1 HW1      -0.580200
     13 C5'          5.0280    -2.5170    -4.8190 c3         1 HW1       0.108800
     14 C4'          4.2390    -1.1920    -4.7480 c3         1 HW1       0.177100
     15 O09          5.1270    -0.0790    -4.8700 os         1 HW1      -0.407600
     16 C10          5.2590     0.4160    -6.2040 c3         1 HW1       0.206400
     17 C11          6.2280     1.6000    -6.2150 c3         1 HW1      -0.036400
     18 C12          6.3690     2.1290    -7.6440 c3         1 HW1      -0.025400
     19 C13          7.3380     3.3130    -7.6560 c3         1 HW1      -0.026400
     20 C14          7.4800     3.8420    -9.0840 c3         1 HW1      -0.070700
     21 C26          8.4340     5.0090    -9.0950 ca         1 HW1       0.430600
     22 N21          8.2110     6.0400    -8.3020 nb         1 HW1      -0.653000
     23 C22          9.0230     7.0860    -8.2790 ca         1 HW1       0.516200
     24 N22          8.7490     8.1520    -7.4290 nv         1 HW1      -0.537500
     25 C23         10.1460     7.1280    -9.0980 ca         1 HW1      -0.313300
     26 C24         10.4060     6.0610    -9.9400 ca         1 HW1      -0.004300
     27 C25          9.5330     4.9820    -9.9300 ca         1 HW1      -0.290300
     28 C27         11.6160     6.0670   -10.8390 c3         1 HW1       0.060200
     29 H1          -0.5000     0.5580    -0.6640 hn         1 HW1       0.271300
     30 H2          -0.5000    -0.5950     0.6300 hn         1 HW1       0.271300
     31 H3           1.5470     0.1830     2.1350 ha         1 HW1       0.120000
     32 H4           3.6240     0.3800     3.2830 hc         1 HW1       0.009700
     33 H5           4.5560    -1.0120     2.7140 hc         1 HW1       0.009700
     34 H6           5.1200     0.6290     2.3720 hc         1 HW1       0.009700
     35 H7           5.1940     0.0000    -0.0790 ha         1 HW1       0.120000
     36 H8           3.8470     0.9140    -3.0550 hc         1 HW1       0.035200
     37 H9           5.1340    -0.0920    -2.3750 hc         1 HW1       0.035200
     38 H10          2.4950    -1.1710    -3.4570 hc         1 HW1       0.055700
     39 H11          4.8900    -2.3670    -2.0850 h1         1 HW1       0.015700
     40 H12          3.2040    -2.9460    -2.1230 h1         1 HW1       0.015700
     41 H13          4.9820    -4.1230    -3.5460 hn         1 HW1       0.251800
     42 H15          6.0580    -2.3580    -4.5240 h1         1 HW1       0.017200
     43 H16          4.9740    -2.9350    -5.8170 h1         1 HW1       0.017200
     44 H17          3.4830    -1.1650    -5.5240 h1         1 HW1       0.019700
     45 H18          5.6420    -0.3700    -6.8440 h1         1 HW1      -0.008300
     46 H19          4.2910     0.7380    -6.5670 h1         1 HW1      -0.008300
     47 H20          5.8460     2.3850    -5.5750 hc         1 HW1       0.023200
     48 H21          7.1970     1.2770    -5.8530 hc         1 HW1       0.023200
     49 H22          5.4010     2.4510    -8.0070 hc         1 HW1       0.013200
     50 H23          6.7510     1.3430    -8.2840 hc         1 HW1       0.013200
     51 H24          8.3070     2.9910    -7.2920 hc         1 HW1       0.024700
     52 H25          6.9560     4.0990    -7.0160 hc         1 HW1       0.024700
     53 H26          6.5120     4.1640    -9.4470 hc         1 HW1       0.021200
     54 H27          7.8630     3.0570    -9.7240 hc         1 HW1       0.021200
     55 H28          7.8980     8.1660    -6.9030 hn         1 HW1       0.269800
     56 H29          9.4110     8.8960    -7.3300 hn         1 HW1       0.269800
     57 H30         10.8080     7.9860    -9.0790 ha         1 HW1       0.118000
     58 H31          9.7080     4.1310   -10.5770 ha         1 HW1       0.119000
     59 H32         11.8770     7.0880   -11.0860 hc         1 HW1       0.009367
     60 H33         12.4470     5.5950   -10.3290 hc         1 HW1       0.009367
     61 H34         11.3920     5.5210   -11.7470 hc         1 HW1       0.009367
@<TRIPOS>BOND
     1     1     2 1   
     2     1    29 1   
     3     1    30 1   
     4     2     3 ar  
     5     2     7 ar  
     6     3     4 ar  
     7     3    31 1   
     8     4     5 1   
     9     4     6 ar  
    10     5    32 1   
    11     5    33 1   
    12     5    34 1   
    13     6     8 ar  
    14     6    35 1   
    15     7     8 ar  
    16     8     9 1   
    17     9    10 1   
    18     9    36 1   
    19     9    37 1   
    20    10    11 1   
    21    10    14 1   
    22    10    38 1   
    23    11    12 1   
    24    11    39 1   
    25    11    40 1   
    26    12    13 1   
    27    12    41 1   
    28    13    14 1   
    29    13    42 1   
    30    13    43 1   
    31    14    15 1   
    32    14    44 1   
    33    15    16 1   
    34    16    17 1   
    35    16    45 1   
    36    16    46 1   
    37    17    18 1   
    38    17    47 1   
    39    17    48 1   
    40    18    19 1   
    41    18    49 1   
    42    18    50 1   
    43    19    20 1   
    44    19    51 1   
    45    19    52 1   
    46    20    21 1   
    47    20    53 1   
    48    20    54 1   
    49    21    22 ar  
    50    21    27 ar  
    51    22    23 ar  
    52    23    24 1   
    53    23    25 ar  
    54    24    55 1   
    55    24    56 1   
    56    25    26 ar  
    57    25    57 1   
    58    26    27 ar  
    59    26    28 1   
    60    27    58 1   
    61    28    59 1   
    62    28    60 1   
    63    28    61 1   
@<TRIPOS>SUBSTRUCTURE
     1 HW1         1 TEMP              0 ****  ****    0 ROOT
