@<TRIPOS>MOLECULE
molecule
   57    59     1     0     0
SMALL
bcc


@<TRIPOS>ATOM
      1 F23          0.0000     0.0000     0.0000 f          1 HW4      -0.141900
      2 C23          1.3510     0.0000     0.0000 ca         1 HW4       0.135900
      3 C24          2.0440     0.0000     1.1990 ca         1 HW4      -0.171000
      4 C25          3.4260     0.0000     1.1970 ca         1 HW4      -0.100000
      5 C26          4.1170     0.0010    -0.0010 ca         1 HW4      -0.142000
      6 C22          2.0440    -0.0050    -1.1990 ca         1 HW4      -0.166000
      7 C21          3.4260     0.0020    -1.1980 ca         1 HW4      -0.055300
      8 C14          4.1800     0.0030    -2.5030 c3         1 HW4      -0.037100
      9 C13          4.4370    -1.4390    -2.9460 c3         1 HW4      -0.076400
     10 C12          5.2020    -1.4370    -4.2700 c3         1 HW4      -0.082400
     11 C11          5.4580    -2.8790    -4.7130 c3         1 HW4      -0.081400
     12 C10          6.2240    -2.8770    -6.0380 c3         1 HW4       0.136400
     13 O09          6.4630    -4.2240    -6.4510 os         1 HW4      -0.427600
     14 C3'          7.1760    -4.3350    -7.6840 c3         1 HW4       0.138100
     15 C2'          6.1890    -4.4140    -8.8690 c3         1 HW4       0.111800
     16 N1'          6.8150    -5.3730    -9.8150 n7         1 HW4      -0.799200
     17 C5'          7.3870    -6.4290    -8.9390 c3         1 HW4       0.152800
     18 C4'          7.9640    -5.6610    -7.7300 c3         1 HW4      -0.059700
     19 C08          7.7430    -6.4550    -6.4410 c3         1 HW4      -0.112700
     20 C06          8.5610    -7.7200    -6.4840 ca         1 HW4       0.476600
     21 N01          8.4210    -8.5510    -7.5000 nb         1 HW4      -0.775000
     22 C02          9.1180    -9.6740    -7.5790 ca         1 HW4       0.709200
     23 N02          8.9400   -10.5210    -8.6670 nv         1 HW4      -1.016500
     24 C03         10.0300   -10.0140    -6.5840 ca         1 HW4      -0.329300
     25 C04         10.1980    -9.1610    -5.5070 ca         1 HW4      -0.005300
     26 C05          9.4500    -7.9910    -5.4650 ca         1 HW4      -0.308300
     27 C07         11.1740    -9.4930    -4.4080 c3         1 HW4      -0.050800
     28 H1           1.5030    -0.0010     2.1370 ha         1 HW4       0.144000
     29 H2           3.9690     0.0000     2.1340 ha         1 HW4       0.136000
     30 H3           5.2000     0.0040    -0.0020 ha         1 HW4       0.134000
     31 H4           1.5030    -0.0050    -2.1370 ha         1 HW4       0.145000
     32 H5           5.1250     0.5150    -2.3730 hc         1 HW4       0.051200
     33 H6           3.5940     0.5140    -3.2580 hc         1 HW4       0.051200
     34 H7           3.4910    -1.9510    -3.0760 hc         1 HW4       0.048700
     35 H8           5.0220    -1.9490    -2.1910 hc         1 HW4       0.048700
     36 H9           4.6170    -0.9260    -5.0250 hc         1 HW4       0.042200
     37 H10          6.1490    -0.9260    -4.1390 hc         1 HW4       0.042200
     38 H11          6.0430    -3.3900    -3.9580 hc         1 HW4       0.053700
     39 H12          4.5120    -3.3890    -4.8440 hc         1 HW4       0.053700
     40 H13          5.6380    -2.3660    -6.7920 h1         1 HW4       0.023700
     41 H14          7.1700    -2.3660    -5.9070 h1         1 HW4       0.023700
     42 H15          7.8490    -3.4960    -7.8140 h1         1 HW4       0.048700
     43 H16          5.2290    -4.7880    -8.5350 h1         1 HW4       0.045200
     44 H17          6.0820    -3.4420    -9.3350 h1         1 HW4       0.045200
     45 H18          6.1090    -5.7720   -10.4020 hn         1 HW4       0.345800
     46 H20          8.1750    -6.9610    -9.4580 h1         1 HW4       0.055200
     47 H21          6.6100    -7.1110    -8.6160 h1         1 HW4       0.055200
     48 H22          9.0180    -5.4640    -7.8810 hc         1 HW4       0.065700
     49 H23          8.0480    -5.8570    -5.5910 hc         1 HW4       0.067200
     50 H24          6.6940    -6.7070    -6.3470 hc         1 HW4       0.067200
     51 H25          9.5620   -11.2920    -8.8080 hn         1 HW4       0.437800
     52 H26          8.2050   -10.3440    -9.3230 hn         1 HW4       0.437800
     53 H27         10.5980   -10.9330    -6.6500 ha         1 HW4       0.133000
     54 H28          9.5590    -7.3030    -4.6350 ha         1 HW4       0.137000
     55 H29         12.1210    -9.7900    -4.8430 hc         1 HW4       0.046700
     56 H30         10.7810   -10.3060    -3.8100 hc         1 HW4       0.046700
     57 H31         11.3220    -8.6220    -3.7810 hc         1 HW4       0.046700
@<TRIPOS>BOND
     1    27    25 1
     2    25    24 ar
     3    25    26 ar
     4    24    22 ar
     5    26    20 ar
     6    22    23 1
     7    22    21 ar
     8    20    21 ar
     9    20    19 1
    10    18    17 1
    11    18    14 1
    12    18    19 1
    13    17    16 1
    14    14    13 1
    15    14    15 1
    16    12    13 1
    17    12    11 1
    18     4     3 ar
    19     4     5 ar
    20    16    15 1
    21     3     2 ar
    22     5     7 ar
    23    10    11 1
    24    10     9 1
    25     2     1 1
    26     2     6 ar
    27     7     6 ar
    28     7     8 1
    29     9     8 1
    30     3    28 1
    31     4    29 1
    32     5    30 1
    33     6    31 1
    34     8    32 1
    35     8    33 1
    36     9    34 1
    37     9    35 1
    38    10    36 1
    39    10    37 1
    40    11    38 1
    41    11    39 1
    42    12    40 1
    43    12    41 1
    44    14    42 1
    45    15    43 1
    46    15    44 1
    47    16    45 1
    48    17    46 1
    49    17    47 1
    50    18    48 1
    51    19    49 1
    52    19    50 1
    53    23    51 1
    54    23    52 1
    55    24    53 1
    56    26    54 1
    57    27    55 1
    58    27    56 1
    59    27    57 1
@<TRIPOS>SUBSTRUCTURE
     1 HW4         1 TEMP              0 ****  ****    0 ROOT
