@<TRIPOS>MOLECULE
HW5
   55    59     1     0     0
SMALL
bcc


@<TRIPOS>ATOM
      1 F23          0.0000     0.0000     0.0000 f          1 HW5      -0.093000
      2 C23          1.3510     0.0000     0.0000 c2         1 HW5       0.087000
      3 C22          2.0410     0.0000     1.1970 c2         1 HW5      -0.156000
      4 C21          3.4370    -0.0010     1.1950 c3         1 HW5      -0.036000
      5 C26          4.1260    -0.0020    -0.0180 c2         1 HW5      -0.139000
      6 C25          3.4270    -0.0010    -1.2080 c2         1 HW5      -0.060000
      7 C24          2.0430    -0.0050    -1.2000 c2         1 HW5      -0.151000
      8 C14          4.1810    -0.0020     2.4710 c2         1 HW5      -0.119000
      9 C13          5.5070    -0.0020     2.4660 c2         1 HW5      -0.195000
     10 C12          6.2650    -0.0020     3.7670 DU         1 HW5      -0.091000
     11 C11          7.2370    -1.1840     3.7910 c3         1 HW5      -0.111000
     12 C10          8.0070    -1.1840     5.1140 c3         1 HW5       0.052000
     13 O09          8.9150    -2.2880     5.1360 os         1 HW5      -0.262000
     14 C3'          9.6880    -2.3810     6.3340 c3         1 HW5       0.064000
     15 C4'         10.0950    -3.8460     6.5970 c3         1 HW5      -0.084000
     16 C5'         11.6400    -3.8420     6.5720 c3         1 HW5      -0.095000
     17 N1'         12.0150    -2.4430     6.9010 n7         1 HW5      -0.066000
     18 C2'         11.0190    -1.6170     6.1730 c3         1 HW5      -0.127000
     19 C08          9.5490    -4.7550     5.4940 c3         1 HW5      -0.050000
     20 C06          9.9140    -6.1850     5.7970 c2         1 HW5       0.009000
     21 C05          8.9230    -7.1440     5.8570 c2         1 HW5      -0.224000
     22 C04          9.2660    -8.4610     6.1300 c2         1 HW5       0.003000
     23 C07          8.2090    -9.5330     6.2030 c3         1 HW5      -0.065000
     24 C03         10.6000    -8.7680     6.3330 c2         1 HW5      -0.247000
     25 C02         11.5460    -7.7510     6.2570 c2         1 HW5      -0.005000
     26 N01         11.1780    -6.5070     5.9950 n2         1 HW5      -0.135000
     27 N02         12.8900    -8.0450     6.4590 nv         1 HW5       0.064000
     28 H1           1.5000     0.0000     2.1360 ha         1 HW5       0.130000
     29 H2           5.2100    -0.0000    -0.0270 ha         1 HW5       0.128000
     30 H3           3.9620    -0.0030    -2.1500 ha         1 HW5       0.108000
     31 H4           1.4990    -0.0050    -2.1370 ha         1 HW5       0.120000
     32 H5           4.0310    -0.8770     1.8500 DU         1 HW5       0.169000
     33 H7           5.6560     0.8730     3.0870 DU         1 HW5       0.161000
     34 H9           6.8210     0.9230     3.8620 ha         1 HW5       0.063000
     35 H10          5.5680    -0.0910     4.5920 ha         1 HW5       0.063000
     36 H11          6.6820    -2.1090     3.6960 hc         1 HW5       0.069000
     37 H12          7.9340    -1.0950     2.9670 hc         1 HW5       0.069000
     38 H13          8.5620    -0.2580     5.2090 h1         1 HW5       0.030500
     39 H14          7.3090    -1.2730     5.9380 h1         1 HW5       0.030500
     40 H15          9.1320    -1.9900     7.1780 h1         1 HW5       0.057000
     41 H16          9.7370    -4.1650     7.5680 hc         1 HW5       0.077000
     42 H17         12.0010    -4.1070     5.5860 h1         1 HW5       0.066000
     43 H18         12.0290    -4.5220     7.3200 h1         1 HW5       0.066000
     44 H19         12.9310    -2.2520     6.5450 hn         1 HW5       0.047000
     45 H21         11.2860    -1.5410     5.1260 h1         1 HW5       0.055500
     46 H22         10.9450    -0.6340     6.6230 h1         1 HW5       0.055500
     47 H23          8.4710    -4.6590     5.4490 hc         1 HW5       0.074500
     48 H24          9.9780    -4.4660     4.5420 hc         1 HW5       0.074500
     49 H25          7.8810    -6.8470     5.8440 ha         1 HW5       0.120000
     50 H26          7.7490    -9.5200     7.1840 hc         1 HW5       0.049000
     51 H27          7.4550    -9.3500     5.4480 hc         1 HW5       0.049000
     52 H28          8.6640   -10.5010     6.0310 hc         1 HW5       0.049000
     53 H29         10.9030    -9.7850     6.5480 ha         1 HW5       0.119000
     54 H30         13.1590    -8.9440     6.8070 hn         1 HW5       0.064500
     55 H31         13.5860    -7.3470     6.2880 hn         1 HW5       0.064500
@<TRIPOS>BOND
     1     1     2 1   
     2     2     3 1   
     3     2     7 1   
     4     3     4 1   
     5     3    28 1   
     6     4     5 1   
     7     4     8 1   
     8     4    32 1   
     9     5     6 1   
    10     5    29 1   
    11     6     7 1   
    12     6    30 1   
    13     7    31 1   
    14     8     9 1   
    15     8    32 1   
    16     9    10 1   
    17     9    33 1   
    18    10    11 1   
    19    10    33 1   
    20    10    34 1   
    21    10    35 1   
    22    11    12 1   
    23    11    36 1   
    24    11    37 1   
    25    12    13 1   
    26    12    38 1   
    27    12    39 1   
    28    13    14 1   
    29    14    15 1   
    30    14    18 1   
    31    14    40 1   
    32    15    16 1   
    33    15    19 1   
    34    15    41 1   
    35    16    17 1   
    36    16    42 1   
    37    16    43 1   
    38    17    18 1   
    39    17    44 1   
    40    18    45 1   
    41    18    46 1   
    42    19    20 1   
    43    19    47 1   
    44    19    48 1   
    45    20    21 1   
    46    20    26 1   
    47    21    22 1   
    48    21    49 1   
    49    22    23 1   
    50    22    24 1   
    51    23    50 1   
    52    23    51 1   
    53    23    52 1   
    54    24    25 1   
    55    24    53 1   
    56    25    26 1   
    57    25    27 1   
    58    27    54 1   
    59    27    55 1   
@<TRIPOS>SUBSTRUCTURE
     1 HW5         1 TEMP              0 ****  ****    0 ROOT
