@<TRIPOS>MOLECULE
molecule
   55    57     1     0     0
SMALL
bcc


@<TRIPOS>ATOM
      1 F23          0.0000     0.0000     0.0000 f          1 HW5      -0.141900
      2 C23          1.3510     0.0000     0.0000 ca         1 HW5       0.134900
      3 C22          2.0410     0.0000     1.1970 ca         1 HW5      -0.160000
      4 C21          3.4370    -0.0010     1.1950 ca         1 HW5      -0.027800
      5 C26          4.1260    -0.0020    -0.0180 ca         1 HW5      -0.141000
      6 C25          3.4270    -0.0010    -1.2080 ca         1 HW5      -0.101000
      7 C24          2.0430    -0.0050    -1.2000 ca         1 HW5      -0.169000
      8 C14          4.1810    -0.0020     2.4710 ce         1 HW5      -0.123200
      9 C13          5.5070    -0.0020     2.4660 c2         1 HW5      -0.155200
     10 C12          6.2650    -0.0020     3.7670 c3         1 HW5      -0.048200
     11 C11          7.2370    -1.1840     3.7910 c3         1 HW5      -0.078400
     12 C10          8.0070    -1.1840     5.1140 c3         1 HW5       0.136400
     13 O09          8.9150    -2.2880     5.1360 os         1 HW5      -0.428600
     14 C3'          9.6880    -2.3810     6.3340 c3         1 HW5       0.138100
     15 C4'         10.0950    -3.8460     6.5970 c3         1 HW5      -0.059700
     16 C5'         11.6400    -3.8420     6.5720 c3         1 HW5       0.151800
     17 N1'         12.0150    -2.4430     6.9010 n7         1 HW5      -0.798200
     18 C2'         11.0190    -1.6170     6.1730 c3         1 HW5       0.112800
     19 C08          9.5490    -4.7550     5.4940 c3         1 HW5      -0.112700
     20 C06          9.9140    -6.1850     5.7970 ca         1 HW5       0.476600
     21 C05          8.9230    -7.1440     5.8570 ca         1 HW5      -0.310300
     22 C04          9.2660    -8.4610     6.1300 ca         1 HW5      -0.005300
     23 C07          8.2090    -9.5330     6.2030 c3         1 HW5      -0.050800
     24 C03         10.6000    -8.7680     6.3330 ca         1 HW5      -0.328300
     25 C02         11.5460    -7.7510     6.2570 ca         1 HW5       0.710200
     26 N01         11.1780    -6.5070     5.9950 nb         1 HW5      -0.776000
     27 N02         12.8900    -8.0450     6.4590 nv         1 HW5      -1.017500
     28 H1           1.5000     0.0000     2.1360 ha         1 HW5       0.146000
     29 H2           5.2100    -0.0000    -0.0270 ha         1 HW5       0.137000
     30 H3           3.9620    -0.0030    -2.1500 ha         1 HW5       0.136000
     31 H4           1.4990    -0.0050    -2.1370 ha         1 HW5       0.144000
     32 H5           3.6440    -0.0020     3.4120 ha         1 HW5       0.133000
     33 H7           6.0440    -0.0020     1.5250 ha         1 HW5       0.131000
     34 H9           6.8200     0.9230     3.8620 hc         1 HW5       0.050200
     35 H10          5.5680    -0.0910     4.5920 hc         1 HW5       0.050200
     36 H11          6.6820    -2.1090     3.6960 hc         1 HW5       0.056200
     37 H12          7.9340    -1.0950     2.9670 hc         1 HW5       0.056200
     38 H13          8.5620    -0.2580     5.2090 h1         1 HW5       0.024200
     39 H14          7.3090    -1.2730     5.9380 h1         1 HW5       0.024200
     40 H15          9.1320    -1.9900     7.1780 h1         1 HW5       0.048700
     41 H16          9.7370    -4.1650     7.5680 hc         1 HW5       0.066700
     42 H17         12.0010    -4.1070     5.5860 h1         1 HW5       0.055700
     43 H18         12.0290    -4.5220     7.3200 h1         1 HW5       0.055700
     44 H19         12.9310    -2.2520     6.5460 hn         1 HW5       0.345800
     45 H21         10.9450    -0.6340     6.6230 h1         1 HW5       0.044700
     46 H22         11.2860    -1.5410     5.1260 h1         1 HW5       0.044700
     47 H23          9.9780    -4.4660     4.5420 hc         1 HW5       0.066700
     48 H24          8.4710    -4.6590     5.4490 hc         1 HW5       0.066700
     49 H25          7.9140    -6.9010     5.5440 ha         1 HW5       0.138000
     50 H26          7.3070    -9.1220     6.6410 hc         1 HW5       0.047033
     51 H27          8.5670   -10.3520     6.8170 hc         1 HW5       0.047033
     52 H28          7.9940    -9.8970     5.2060 hc         1 HW5       0.047033
     53 H29         10.9030    -9.7850     6.5480 ha         1 HW5       0.133000
     54 H30         13.1590    -8.9450     6.8040 hn         1 HW5       0.437800
     55 H31         13.5900    -7.3620     6.2450 hn         1 HW5       0.437800
@<TRIPOS>BOND
     1    23    22 1
     2    22    24 ar
     3    22    21 ar
     4    24    25 ar
     5    21    20 ar
     6    25    27 1
     7    25    26 ar
     8    20    26 ar
     9    20    19 1
    10    15    16 1
    11    15    19 1
    12    15    14 1
    13    16    17 1
    14    14    13 1
    15    14    18 1
    16    12    13 1
    17    12    11 1
    18    17    18 1
    19    11    10 1
    20    10     9 1
    21     6     7 ar
    22     6     5 ar
    23     7     2 ar
    24     5     4 ar
    25     2     1 1
    26     2     3 ar
    27     4     3 ar
    28     4     8 1
    29     9     8 2
    30     3    28 1
    31     5    29 1
    32     6    30 1
    33     7    31 1
    34     8    32 1
    35     9    33 1
    36    10    34 1
    37    10    35 1
    38    11    36 1
    39    11    37 1
    40    12    38 1
    41    12    39 1
    42    14    40 1
    43    15    41 1
    44    16    42 1
    45    16    43 1
    46    17    44 1
    47    18    45 1
    48    18    46 1
    49    19    47 1
    50    19    48 1
    51    21    49 1
    52    23    50 1
    53    23    51 1
    54    23    52 1
    55    24    53 1
    56    27    54 1
    57    27    55 1
@<TRIPOS>SUBSTRUCTURE
     1 HW5         1 TEMP              0 ****  ****    0 ROOT
