@<TRIPOS>MOLECULE
molecule
   57    59     1     0     0
SMALL
bcc


@<TRIPOS>ATOM
      1 F23          0.0000     0.0000     0.0000 f          1 HW6      -0.134900
      2 C23          1.3510     0.0000     0.0000 ca         1 HW6       0.146900
      3 C24          2.0430     0.0000     1.1990 ca         1 HW6      -0.169000
      4 C22          2.0440    -0.0040    -1.1980 ca         1 HW6      -0.167000
      5 C21          3.4260    -0.0030    -1.1980 ca         1 HW6      -0.046300
      6 C26          4.1170     0.0030    -0.0010 ca         1 HW6      -0.137000
      7 C25          3.4260     0.0000     1.1980 ca         1 HW6       0.055400
      8 Cl2          4.2950     0.0000     2.7010 cl         1 HW6      -0.098400
      9 C14          4.1800    -0.0070    -2.5030 c3         1 HW6      -0.037100
     10 C13          4.4340     1.4320    -2.9510 c3         1 HW6      -0.076400
     11 C12          5.1990     1.4280    -4.2750 c3         1 HW6      -0.081400
     12 C11          5.4540     2.8680    -4.7230 c3         1 HW6      -0.081400
     13 C10          6.2190     2.8630    -6.0480 c3         1 HW6       0.136400
     14 O09          6.4570     4.2090    -6.4660 os         1 HW6      -0.428600
     15 C3'          7.1690     4.3170    -7.7000 c3         1 HW6       0.139100
     16 C4'          8.0120     5.6080    -7.7200 c3         1 HW6      -0.063700
     17 C5'          7.4640     6.4260    -8.9100 c3         1 HW6       0.138800
     18 N1'          6.8440     5.4160    -9.8060 n7         1 HW6      -0.790200
     19 C2'          6.1820     4.4640    -8.8780 c3         1 HW6       0.111800
     20 C08          7.8300     6.3820    -6.4140 c3         1 HW6      -0.110700
     21 C06          8.7530     7.5740    -6.4030 ca         1 HW6       0.463600
     22 C05          8.2350     8.8360    -6.1910 ca         1 HW6      -0.295300
     23 C04          9.0890     9.9300    -6.1820 ca         1 HW6      -0.017300
     24 C07          8.5580    11.3210    -5.9550 c3         1 HW6      -0.050800
     25 C03         10.4410     9.7140    -6.3870 ca         1 HW6      -0.309300
     26 C02         10.8940     8.4150    -6.5940 ca         1 HW6       0.701200
     27 N01         10.0470     7.3970    -6.5900 nb         1 HW6      -0.755000
     28 N02         12.2490     8.1830    -6.8020 nv         1 HW6      -1.038500
     29 H1           1.5020    -0.0020     2.1370 ha         1 HW6       0.158000
     30 H2           1.5030    -0.0090    -2.1370 ha         1 HW6       0.150000
     31 H3           5.2000     0.0030    -0.0010 ha         1 HW6       0.149000
     32 H4           3.5950    -0.5220    -3.2560 hc         1 HW6       0.053700
     33 H5           5.1270    -0.5170    -2.3710 hc         1 HW6       0.053700
     34 H6           5.0190     1.9470    -2.1980 hc         1 HW6       0.049200
     35 H7           3.4870     1.9420    -3.0830 hc         1 HW6       0.049200
     36 H8           6.1460     0.9180    -4.1430 hc         1 HW6       0.042700
     37 H9           4.6150     0.9130    -5.0280 hc         1 HW6       0.042700
     38 H10          4.5070     3.3780    -4.8550 hc         1 HW6       0.054200
     39 H11          6.0390     3.3830    -3.9710 hc         1 HW6       0.054200
     40 H12          7.1660     2.3540    -5.9170 h1         1 HW6       0.024200
     41 H13          5.6340     2.3490    -6.8010 h1         1 HW6       0.024200
     42 H14          7.8050     3.4530    -7.8500 h1         1 HW6       0.051700
     43 H15          9.0570     5.3700    -7.8800 hc         1 HW6       0.087700
     44 H16          8.2720     6.9360    -9.4200 h1         1 HW6       0.044700
     45 H17          6.7180     7.1330    -8.5680 h1         1 HW6       0.044700
     46 H18          6.1530     5.8580   -10.3790 hn         1 HW6       0.346800
     47 H20          5.2390     4.8700    -8.5310 h1         1 HW6       0.045700
     48 H21          6.0320     3.5080    -9.3650 h1         1 HW6       0.045700
     49 H22          6.8040     6.7190    -6.3330 hc         1 HW6       0.066700
     50 H23          8.0650     5.7370    -5.5760 hc         1 HW6       0.066700
     51 H24          7.1620     8.9870    -6.1840 ha         1 HW6       0.137000
     52 H25          9.2920    11.9040    -5.4120 hc         1 HW6       0.046700
     53 H26          7.6420    11.2680    -5.3780 hc         1 HW6       0.046700
     54 H27          8.3570    11.7920    -6.9090 hc         1 HW6       0.046700
     55 H28         11.1360    10.5450    -6.3890 ha         1 HW6       0.136000
     56 H29         12.7850     8.8170    -7.3600 hn         1 HW6       0.437300
     57 H30         12.6860     7.3770    -6.4000 hn         1 HW6       0.437300
@<TRIPOS>BOND
     1     1     2 1
     2     2     4 ar
     3     2     3 ar
     4     4     5 ar
     5     3     7 ar
     6     5     9 1
     7     5     6 ar
     8    12    11 1
     9    12    13 1
    10     9    10 1
    11    10    11 1
    12     7     6 ar
    13     7     8 1
    14    13    14 1
    15    14    15 1
    16    20    21 1
    17    20    16 1
    18    15    16 1
    19    15    19 1
    20    21    27 ar
    21    21    22 ar
    22    27    26 ar
    23    22    23 ar
    24    16    17 1
    25    26    28 1
    26    26    25 ar
    27    23    25 ar
    28    23    24 1
    29    19    18 1
    30    17    18 1
    31     3    29 1
    32     4    30 1
    33     6    31 1
    34     9    32 1
    35     9    33 1
    36    10    34 1
    37    10    35 1
    38    11    36 1
    39    11    37 1
    40    12    38 1
    41    12    39 1
    42    13    40 1
    43    13    41 1
    44    15    42 1
    45    16    43 1
    46    17    44 1
    47    17    45 1
    48    18    46 1
    49    19    47 1
    50    19    48 1
    51    20    49 1
    52    20    50 1
    53    22    51 1
    54    24    52 1
    55    24    53 1
    56    24    54 1
    57    25    55 1
    58    28    56 1
    59    28    57 1
@<TRIPOS>SUBSTRUCTURE
     1 HW6         1 TEMP              0 ****  ****    0 ROOT
