@<TRIPOS>MOLECULE
HW7
   55    57     1     0     0
SMALL
bcc


@<TRIPOS>ATOM
      1 CL2         0.0760    0.2120    0.3070 cl        1 HW7     -0.082400
      2 C25         1.7590    0.0340    0.1520 ca        1 HW7      0.076400
      3 C24         2.5390   -0.1000    1.2990 ca        1 HW7     -0.199000
      4 C23         3.9330   -0.2470    1.1560 ca        1 HW7      0.167900
      5 F23         4.7040   -0.3780    2.2610 f         1 HW7     -0.132900
      6 C22         4.5330   -0.2590   -0.1110 ca        1 HW7     -0.200000
      7 C26         2.3260    0.0260   -1.1270 ca        1 HW7     -0.221000
      8 C21         3.7140   -0.1210   -1.2450 ca        1 HW7      0.165100
      9 O14         4.3950   -0.1460   -2.4430 os        1 HW7     -0.325900
     10 C13         3.5960   -0.0060   -3.6270 c3        1 HW7      0.128400
     11 C12         4.5750   -0.0630   -4.7870 c3        1 HW7     -0.085400
     12 C11         3.8310    0.0650   -6.0970 c3        1 HW7     -0.084400
     13 C10         4.8060    0.0140   -7.2600 c3        1 HW7      0.131400
     14 O09         4.0250    0.1480   -8.4470 os        1 HW7     -0.423600
     15 C3'         4.8070    0.0770   -9.6360 c3        1 HW7      0.113100
     16 C2'         5.0240   -1.4000  -10.0580 c3        1 HW7      0.117800
     17 C4'         4.0220    0.7250  -10.8000 c3        1 HW7     -0.080700
     18 C5'         3.7520   -0.4330  -11.7900 c3        1 HW7      0.140800
     19 N1'         4.1750   -1.7020  -11.2040 n3        1 HW7     -0.788200
     20 C08         2.7480    1.4080  -10.3450 c3        1 HW7     -0.116700
     21 C06         2.0580    2.1330  -11.4700 ca        1 HW7      0.451600
     22 N01         2.6430    3.2410  -11.9750 nb        1 HW7     -0.731000
     23 C05         0.8290    1.6260  -11.9390 ca        1 HW7     -0.295300
     24 C04         0.1690    2.2970  -12.9750 ca        1 HW7     -0.005300
     25 C07        -1.1290    1.7970  -13.4840 c3        1 HW7     -0.060800
     26 C03         0.7470    3.4460  -13.5100 ca        1 HW7     -0.302300
     27 C02         1.9890    3.9080  -12.9780 ca        1 HW7      0.633200
     28 N02         2.5200    5.1220  -13.4450 nh        1 HW7     -0.924500
     29 H1          2.0900   -0.0930    2.3020 ha        1 HW7      0.165000
     30 H2          5.6200   -0.3730   -0.2230 ha        1 HW7      0.169000
     31 H3          1.6850    0.1340   -2.0120 ha        1 HW7      0.156000
     32 H4          2.8550   -0.8470   -3.6800 h1        1 HW7      0.045200
     33 H5          3.0560    0.9760   -3.6000 h1        1 HW7      0.045200
     34 H6          5.1390   -1.0310   -4.7500 hc        1 HW7      0.060200
     35 H7          5.3250    0.7640   -4.6810 hc        1 HW7      0.060200
     36 H8          3.0830   -0.7640   -6.2040 hc        1 HW7      0.057200
     37 H9          3.2640    1.0320   -6.1320 hc        1 HW7      0.057200
     38 H10         5.3610   -0.9610   -7.2770 h1        1 HW7      0.030200
     39 H11         5.5470    0.8560   -7.2000 h1        1 HW7      0.030200
     40 H12         5.7890    0.5970   -9.4820 h1        1 HW7      0.051700
     41 H13         4.8180   -2.0890   -9.1970 h1        1 HW7      0.055200
     42 H14         6.0910   -1.5400  -10.3800 h1        1 HW7      0.055200
     43 H15         4.6890    1.4820  -11.2910 hc        1 HW7      0.075700
     44 H16         4.3620   -0.2770  -12.7220 h1        1 HW7      0.053700
     45 H17         2.6690   -0.4570  -12.0850 h1        1 HW7      0.053700
     46 H18         3.3730   -2.2270  -10.9070 hn        1 HW7      0.348800
     47 H20         2.9990    2.1340   -9.5240 hc        1 HW7      0.067200
     48 H21         2.0470    0.6470   -9.9100 hc        1 HW7      0.067200
     49 H22         0.3980    0.7190  -11.4970 ha        1 HW7      0.141000
     50 H23        -1.3240    2.1640  -14.5210 hc        1 HW7      0.049033
     51 H24        -1.1470    0.6800  -13.4920 hc        1 HW7      0.049033
     52 H25        -1.9570    2.1570  -12.8220 hc        1 HW7      0.049033
     53 H26         0.2490    3.9950  -14.3200 ha        1 HW7      0.141000
     54 H27         3.4640    5.3110  -13.1870 hn        1 HW7      0.400800
     55 H28         2.3230    5.2980  -14.4040 hn        1 HW7      0.400800
@<TRIPOS>BOND
     1    1    2 1
     2    2    3 ar
     3    2    7 ar
     4    3    4 ar
     5    3   29 1
     6    4    5 1
     7    4    6 ar
     8    6    8 ar
     9    6   30 1
    10    7    8 ar
    11    7   31 1
    12    8    9 1
    13    9   10 1
    14   10   11 1
    15   10   32 1
    16   10   33 1
    17   11   12 1
    18   11   34 1
    19   11   35 1
    20   12   13 1
    21   12   36 1
    22   12   37 1
    23   13   14 1
    24   13   38 1
    25   13   39 1
    26   14   15 1
    27   15   16 1
    28   15   17 1
    29   15   40 1
    30   16   19 1
    31   16   41 1
    32   16   42 1
    33   17   18 1
    34   17   20 1
    35   17   43 1
    36   18   19 1
    37   18   44 1
    38   18   45 1
    39   19   46 1
    40   20   21 1
    41   20   47 1
    42   20   48 1
    43   21   22 ar
    44   21   23 ar
    45   22   27 ar
    46   23   24 ar
    47   23   49 1
    48   24   25 1
    49   24   26 ar
    50   25   50 1
    51   25   51 1
    52   25   52 1
    53   26   27 ar
    54   26   53 1
    55   27   28 1
    56   28   54 1
    57   28   55 1
@<TRIPOS>SUBSTRUCTURE
     1 HW7         1 TEMP              0 ****  ****    0 ROOT
