@<TRIPOS>MOLECULE
HW8
   56    58     1     0     0
SMALL
bcc


@<TRIPOS>ATOM
      1 N02          0.0000     0.0000     0.0000 nv         1 HW8      -0.563500
      2 C02          1.3910     0.0000     0.0000 ca         1 HW8       0.513200
      3 C03          2.0800     0.0000     1.2090 ca         1 HW8      -0.299300
      4 C04          3.4640     0.0000     1.1940 ca         1 HW8      -0.014300
      5 C07          4.2460    -0.0010     2.4810 c3         1 HW8       0.060200
      6 C05          4.1130     0.0000    -0.0330 ca         1 HW8      -0.277300
      7 C06          3.3660    -0.0000    -1.1930 ca         1 HW8       0.422600
      8 N01          2.0470    -0.0050    -1.1490 nb         1 HW8      -0.642000
      9 C08          4.0650    -0.0060    -2.5280 c3         1 HW8      -0.064700
     10 C4'          3.5750    -1.1950    -3.3570 c3         1 HW8      -0.051700
     11 C5'          4.0170    -2.5220    -2.7050 c3         1 HW8       0.137800
     12 N1'          4.3470    -3.4100    -3.8490 n7         1 HW8      -0.580200
     13 C3'          4.2400    -1.1910    -4.7480 c3         1 HW8       0.177100
     14 C2'          5.0290    -2.5150    -4.8200 c3         1 HW8       0.108800
     15 O09          5.1270    -0.0770    -4.8710 os         1 HW8      -0.407600
     16 C10          5.2590     0.4180    -6.2040 c3         1 HW8       0.207400
     17 C11          6.2280     1.6020    -6.2160 c3         1 HW8      -0.036400
     18 C12          6.3680     2.1320    -7.6440 c3         1 HW8      -0.025400
     19 C13          7.3370     3.3160    -7.6550 c3         1 HW8      -0.026400
     20 C14          7.4780     3.8460    -9.0840 c3         1 HW8      -0.068700
     21 C26          8.4320     5.0130    -9.0940 ca         1 HW8       0.376600
     22 N21          8.2100     6.0440    -8.3030 nb         1 HW8      -0.576000
     23 C22          9.0170     7.0870    -8.2790 ca         1 HW8       0.405200
     24 C23         10.1350     7.1340    -9.0900 ca         1 HW8      -0.228300
     25 C24         10.4010     6.0680    -9.9370 ca         1 HW8      -0.066000
     26 C25          9.5330     4.9880    -9.9300 ca         1 HW8      -0.217300
     27 H1          -0.5000    -0.4700     0.7280 hn         1 HW8       0.270300
     28 H2          -0.5000     0.4560    -0.7370 hn         1 HW8       0.270300
     29 H3           1.5480     0.1790     2.1360 ha         1 HW8       0.120000
     30 H4           4.4270     1.0210     2.7950 hc         1 HW8       0.009700
     31 H5           3.6820    -0.5190     3.2470 hc         1 HW8       0.009700
     32 H6           5.1930    -0.5040     2.3280 hc         1 HW8       0.009700
     33 H7           5.1950     0.0020    -0.0790 ha         1 HW8       0.120000
     34 H8           5.1340    -0.0890    -2.3750 hc         1 HW8       0.034700
     35 H9           3.8470     0.9150    -3.0540 hc         1 HW8       0.034700
     36 H10          2.4960    -1.1700    -3.4580 hc         1 HW8       0.055700
     37 H11          3.2060    -2.9440    -2.1230 h1         1 HW8       0.016200
     38 H12          4.8920    -2.3640    -2.0860 h1         1 HW8       0.016200
     39 H13          4.9830    -4.1210    -3.5470 hn         1 HW8       0.251800
     40 H15          3.4840    -1.1640    -5.5240 h1         1 HW8       0.019700
     41 H16          4.9750    -2.9320    -5.8180 h1         1 HW8       0.017200
     42 H17          6.0590    -2.3560    -4.5250 h1         1 HW8       0.017200
     43 H18          5.6410    -0.3680    -6.8440 h1         1 HW8      -0.008300
     44 H19          4.2900     0.7400    -6.5670 h1         1 HW8      -0.008300
     45 H20          7.1960     1.2800    -5.8530 hc         1 HW8       0.023700
     46 H21          5.8460     2.3880    -5.5750 hc         1 HW8       0.023700
     47 H22          5.4000     2.4540    -8.0060 hc         1 HW8       0.013200
     48 H23          6.7510     1.3470    -8.2840 hc         1 HW8       0.013200
     49 H24          6.9550     4.1010    -7.0140 hc         1 HW8       0.024700
     50 H25          8.3050     2.9940    -7.2920 hc         1 HW8       0.024700
     51 H26          6.5090     4.1680    -9.4470 hc         1 HW8       0.021700
     52 H27          7.8610     3.0610    -9.7240 hc         1 HW8       0.021700
     53 H28          8.8010     7.9150    -7.6150 h4         1 HW8      -0.020900
     54 H29         10.7930     7.9940    -9.0670 ha         1 HW8       0.112000
     55 H30         11.2710     6.0770   -10.5820 ha         1 HW8       0.107000
     56 H31          9.7100     4.1380   -10.5780 ha         1 HW8       0.115000
@<TRIPOS>BOND
     1     1     2 1   
     2     1    27 1   
     3     1    28 1   
     4     2     3 ar  
     5     2     8 ar  
     6     3     4 ar  
     7     3    29 1   
     8     4     5 1   
     9     4     6 ar  
    10     5    30 1   
    11     5    31 1   
    12     5    32 1   
    13     6     7 ar  
    14     6    33 1   
    15     7     8 ar  
    16     7     9 1   
    17     9    10 1   
    18     9    34 1   
    19     9    35 1   
    20    10    11 1   
    21    10    13 1   
    22    10    36 1   
    23    11    12 1   
    24    11    37 1   
    25    11    38 1   
    26    12    14 1   
    27    12    39 1   
    28    13    14 1   
    29    13    15 1   
    30    13    40 1   
    31    14    41 1   
    32    14    42 1   
    33    15    16 1   
    34    16    17 1   
    35    16    43 1   
    36    16    44 1   
    37    17    18 1   
    38    17    45 1   
    39    17    46 1   
    40    18    19 1   
    41    18    47 1   
    42    18    48 1   
    43    19    20 1   
    44    19    49 1   
    45    19    50 1   
    46    20    21 1   
    47    20    51 1   
    48    20    52 1   
    49    21    22 ar  
    50    21    26 ar  
    51    22    23 ar  
    52    23    24 ar  
    53    23    53 1   
    54    24    25 ar  
    55    24    54 1   
    56    25    26 ar  
    57    25    55 1   
    58    26    56 1   
@<TRIPOS>SUBSTRUCTURE
     1 HW8         1 TEMP              0 ****  ****    0 ROOT
