@<TRIPOS>MOLECULE
molecule
   56    58     1     0     0
SMALL
bcc


@<TRIPOS>ATOM
      1 N02          0.0000     0.0000     0.0000 nv         1 HW8      -1.032500
      2 C02          1.3910     0.0000     0.0000 ca         1 HW8       0.705200
      3 C03          2.0800     0.0000     1.2090 ca         1 HW8      -0.318300
      4 C04          3.4640     0.0000     1.1940 ca         1 HW8      -0.013300
      5 C07          4.2460    -0.0010     2.4810 c3         1 HW8      -0.050800
      6 C05          4.1130     0.0000    -0.0330 ca         1 HW8      -0.300300
      7 C06          3.3660    -0.0000    -1.1930 ca         1 HW8       0.468600
      8 N01          2.0470    -0.0050    -1.1490 nb         1 HW8      -0.761000
      9 C08          4.0650    -0.0060    -2.5280 c3         1 HW8      -0.110700
     10 C4'          3.5750    -1.1950    -3.3570 c3         1 HW8      -0.062700
     11 C5'          4.0170    -2.5220    -2.7050 c3         1 HW8       0.138800
     12 N1'          4.3470    -3.4100    -3.8490 n7         1 HW8      -0.791200
     13 C3'          4.2400    -1.1910    -4.7480 c3         1 HW8       0.139100
     14 C2'          5.0290    -2.5150    -4.8200 c3         1 HW8       0.111800
     15 O09          5.1270    -0.0770    -4.8710 os         1 HW8      -0.428600
     16 C10          5.2590     0.4180    -6.2040 c3         1 HW8       0.136400
     17 C11          6.2280     1.6020    -6.2160 c3         1 HW8      -0.081400
     18 C12          6.3680     2.1320    -7.6440 c3         1 HW8      -0.083400
     19 C13          7.3370     3.3160    -7.6550 c3         1 HW8      -0.074400
     20 C14          7.4780     3.8460    -9.0840 c3         1 HW8      -0.125700
     21 C26          8.4320     5.0130    -9.0940 ca         1 HW8       0.428600
     22 N21          8.2100     6.0440    -8.3030 nb         1 HW8      -0.693000
     23 C22          9.0170     7.0870    -8.2790 ca         1 HW8       0.424200
     24 C23         10.1350     7.1340    -9.0900 ca         1 HW8      -0.261300
     25 C24         10.4010     6.0680    -9.9370 ca         1 HW8      -0.091000
     26 C25          9.5330     4.9880    -9.9300 ca         1 HW8      -0.250300
     27 H1          -0.5000    -0.4700     0.7280 hn         1 HW8       0.437300
     28 H2          -0.5000     0.4560    -0.7370 hn         1 HW8       0.437300
     29 H3           1.5480     0.1790     2.1360 ha         1 HW8       0.137000
     30 H4           4.4270     1.0210     2.7950 hc         1 HW8       0.046367
     31 H5           3.6820    -0.5190     3.2470 hc         1 HW8       0.046367
     32 H6           5.1930    -0.5040     2.3280 hc         1 HW8       0.046367
     33 H7           5.1950     0.0020    -0.0790 ha         1 HW8       0.137000
     34 H8           5.1340    -0.0890    -2.3750 hc         1 HW8       0.066700
     35 H9           3.8470     0.9150    -3.0540 hc         1 HW8       0.066700
     36 H10          2.4960    -1.1700    -3.4580 hc         1 HW8       0.085700
     37 H11          3.2060    -2.9440    -2.1230 h1         1 HW8       0.045200
     38 H12          4.8920    -2.3640    -2.0860 h1         1 HW8       0.045200
     39 H13          4.9830    -4.1210    -3.5470 hn         1 HW8       0.345800
     40 H15          3.4840    -1.1640    -5.5240 h1         1 HW8       0.051700
     41 H16          4.9750    -2.9320    -5.8180 h1         1 HW8       0.045700
     42 H17          6.0590    -2.3560    -4.5250 h1         1 HW8       0.045700
     43 H18          5.6410    -0.3680    -6.8440 h1         1 HW8       0.023700
     44 H19          4.2900     0.7400    -6.5670 h1         1 HW8       0.023700
     45 H20          7.1960     1.2800    -5.8530 hc         1 HW8       0.054200
     46 H21          5.8460     2.3880    -5.5750 hc         1 HW8       0.054200
     47 H22          5.4000     2.4540    -8.0060 hc         1 HW8       0.040200
     48 H23          6.7510     1.3470    -8.2840 hc         1 HW8       0.040200
     49 H24          6.9550     4.1010    -7.0140 hc         1 HW8       0.054700
     50 H25          8.3050     2.9940    -7.2920 hc         1 HW8       0.054700
     51 H26          6.5090     4.1680    -9.4470 hc         1 HW8       0.053700
     52 H27          7.8610     3.0610    -9.7240 hc         1 HW8       0.053700
     53 H28          8.8010     7.9150    -7.6150 h4         1 HW8       0.022100
     54 H29         10.7930     7.9940    -9.0670 ha         1 HW8       0.137000
     55 H30         11.2710     6.0770   -10.5820 ha         1 HW8       0.136000
     56 H31          9.7100     4.1380   -10.5780 ha         1 HW8       0.138000
@<TRIPOS>BOND
     1    25    24 ar
     2    25    26 ar
     3    24    23 ar
     4    26    21 ar
     5    23    22 ar
     6    21    22 ar
     7    21    20 1
     8    19    20 1
     9    19    18 1
    10    17    18 1
    11    17    16 1
    12    16    15 1
    13    15    13 1
    14     9     7 1
    15     9    10 1
    16    13    10 1
    17    13    14 1
    18     7     8 ar
    19     7     6 ar
    20     8     2 ar
    21    10    11 1
    22     6     4 ar
    23     2     1 1
    24     2     3 ar
    25    14    12 1
    26     4     3 ar
    27     4     5 1
    28    11    12 1
    29     1    27 1
    30     1    28 1
    31     3    29 1
    32     5    30 1
    33     5    31 1
    34     5    32 1
    35     6    33 1
    36     9    34 1
    37     9    35 1
    38    10    36 1
    39    11    37 1
    40    11    38 1
    41    12    39 1
    42    13    40 1
    43    14    41 1
    44    14    42 1
    45    16    43 1
    46    16    44 1
    47    17    45 1
    48    17    46 1
    49    18    47 1
    50    18    48 1
    51    19    49 1
    52    19    50 1
    53    20    51 1
    54    20    52 1
    55    23    53 1
    56    24    54 1
    57    25    55 1
    58    26    56 1
@<TRIPOS>SUBSTRUCTURE
     1 HW8         1 TEMP              0 ****  ****    0 ROOT
