@<TRIPOS>MOLECULE
molecule
   59    61     1     0     0
SMALL
bcc


@<TRIPOS>ATOM
      1 N02          0.0000     0.0000     0.0000 nv         1 HW9      -1.041500
      2 C02          1.3890     0.0000     0.0000 ca         1 HW9       0.698200
      3 C03          2.0790     0.0000     1.2080 ca         1 HW9      -0.304300
      4 C04          3.4620    -0.0000     1.1940 ca         1 HW9      -0.020300
      5 C05          4.1120    -0.0010    -0.0330 ca         1 HW9      -0.292300
      6 C07          4.2460     0.0010     2.4810 c3         1 HW9      -0.049800
      7 N01          2.0460    -0.0060    -1.1500 nb         1 HW9      -0.752000
      8 C06          3.3650    -0.0000    -1.1940 ca         1 HW9       0.462600
      9 C08          4.0650    -0.0070    -2.5290 c3         1 HW9      -0.110700
     10 C4'          3.5730    -1.1960    -3.3580 c3         1 HW9      -0.062700
     11 C3'          4.2380    -1.1900    -4.7490 c3         1 HW9       0.139100
     12 C2'          5.0270    -2.5160    -4.8210 c3         1 HW9       0.111800
     13 N1'          4.3460    -3.4100    -3.8500 n7         1 HW9      -0.791200
     14 C5'          4.0150    -2.5230    -2.7060 c3         1 HW9       0.139800
     15 O09          5.1260    -0.0770    -4.8710 os         1 HW9      -0.428600
     16 C10          5.2570     0.4170    -6.2060 c3         1 HW9       0.135400
     17 C11          6.2260     1.6020    -6.2170 c3         1 HW9      -0.080400
     18 C12          6.3660     2.1320    -7.6450 c3         1 HW9      -0.083400
     19 C13          7.3350     3.3160    -7.6570 c3         1 HW9      -0.074400
     20 C14          7.4760     3.8450    -9.0850 c3         1 HW9      -0.124700
     21 C26          8.4290     5.0120    -9.0960 ca         1 HW9       0.431600
     22 N21          8.2080     6.0430    -8.3050 nb         1 HW9      -0.698000
     23 C22          9.0150     7.0850    -8.2810 ca         1 HW9       0.427200
     24 C23         10.1310     7.1340    -9.0930 ca         1 HW9      -0.262300
     25 C24         10.3980     6.0670    -9.9400 ca         1 HW9      -0.045300
     26 C25          9.5300     4.9860    -9.9330 ca         1 HW9      -0.250300
     27 C27         11.6090     6.0780   -10.8370 c3         1 HW9      -0.050800
     28 H1          -0.5000     0.5640    -0.6580 hn         1 HW9       0.436300
     29 H2          -0.5000    -0.5960     0.6290 hn         1 HW9       0.436300
     30 H3           1.5400     0.0000     2.1480 ha         1 HW9       0.136000
     31 H4           5.1950     0.0010    -0.0790 ha         1 HW9       0.137000
     32 H5           3.7100     0.5700     3.2300 hc         1 HW9       0.046033
     33 H6           5.2170     0.4510     2.3120 hc         1 HW9       0.046033
     34 H7           4.3760    -1.0180     2.8250 hc         1 HW9       0.046033
     35 H8           3.8470     0.9150    -3.0550 hc         1 HW9       0.067200
     36 H9           5.1340    -0.0910    -2.3760 hc         1 HW9       0.067200
     37 H10          2.4940    -1.1700    -3.4590 hc         1 HW9       0.085700
     38 H11          3.4820    -1.1630    -5.5250 h1         1 HW9       0.051700
     39 H12          6.0570    -2.3560    -4.5270 h1         1 HW9       0.045700
     40 H13          4.9720    -2.9330    -5.8190 h1         1 HW9       0.045700
     41 H14          4.9820    -4.1210    -3.5470 hn         1 HW9       0.345800
     42 H16          3.2050    -2.9450    -2.1240 h1         1 HW9       0.045200
     43 H17          4.8910    -2.3650    -2.0870 h1         1 HW9       0.045200
     44 H18          5.6400    -0.3690    -6.8460 h1         1 HW9       0.023700
     45 H19          4.2890     0.7390    -6.5690 h1         1 HW9       0.023700
     46 H20          7.1940     1.2800    -5.8540 hc         1 HW9       0.054200
     47 H21          5.8430     2.3870    -5.5760 hc         1 HW9       0.054200
     48 H22          6.7490     1.3460    -8.2860 hc         1 HW9       0.040200
     49 H23          5.3980     2.4540    -8.0080 hc         1 HW9       0.040200
     50 H24          8.3030     2.9940    -7.2940 hc         1 HW9       0.054700
     51 H25          6.9520     4.1010    -7.0170 hc         1 HW9       0.054700
     52 H26          7.8590     3.0590    -9.7250 hc         1 HW9       0.053700
     53 H27          6.5070     4.1660    -9.4480 hc         1 HW9       0.053700
     54 H28          8.8000     7.9130    -7.6170 h4         1 HW9       0.022100
     55 H29         10.7890     7.9940    -9.0710 ha         1 HW9       0.137000
     56 H30          9.7070     4.1360   -10.5810 ha         1 HW9       0.138000
     57 H31         11.5250     6.8920   -11.5470 hc         1 HW9       0.047700
     58 H32         12.5010     6.2120   -10.2380 hc         1 HW9       0.047700
     59 H33         11.6710     5.1380   -11.3720 hc         1 HW9       0.047700
@<TRIPOS>BOND
     1    27    25 1
     2    25    26 ar
     3    25    24 ar
     4    26    21 ar
     5    24    23 ar
     6    21    20 1
     7    21    22 ar
     8    23    22 ar
     9    20    19 1
    10    18    19 1
    11    18    17 1
    12    17    16 1
    13    16    15 1
    14    15    11 1
    15    11    10 1
    16    11    12 1
    17     9    10 1
    18     9     8 1
    19    10    14 1
    20     8     7 ar
    21     8     5 ar
    22     7     2 ar
    23    12    13 1
    24     5     4 ar
    25     2     1 1
    26     2     3 ar
    27     4     3 ar
    28     4     6 1
    29    14    13 1
    30     1    28 1
    31     1    29 1
    32     3    30 1
    33     5    31 1
    34     6    32 1
    35     6    33 1
    36     6    34 1
    37     9    35 1
    38     9    36 1
    39    10    37 1
    40    11    38 1
    41    12    39 1
    42    12    40 1
    43    13    41 1
    44    14    42 1
    45    14    43 1
    46    16    44 1
    47    16    45 1
    48    17    46 1
    49    17    47 1
    50    18    48 1
    51    18    49 1
    52    19    50 1
    53    19    51 1
    54    20    52 1
    55    20    53 1
    56    23    54 1
    57    24    55 1
    58    26    56 1
    59    27    57 1
    60    27    58 1
    61    27    59 1
@<TRIPOS>SUBSTRUCTURE
     1 HW9         1 TEMP              0 ****  ****    0 ROOT
