@<TRIPOS>MOLECULE
HW9
   59    61     1     0     0
SMALL
bcc


@<TRIPOS>ATOM
      1 N02          0.0000     0.0000     0.0000 nv         1 HW9      -0.578500
      2 C02          1.3890     0.0000     0.0000 ca         1 HW9       0.508200
      3 C03          2.0790     0.0000     1.2080 ca         1 HW9      -0.283300
      4 C04          3.4620    -0.0000     1.1940 ca         1 HW9      -0.023300
      5 C05          4.1120    -0.0010    -0.0330 ca         1 HW9      -0.267300
      6 C07          4.2460     0.0010     2.4810 c3         1 HW9       0.061200
      7 N01          2.0460    -0.0060    -1.1500 nb         1 HW9      -0.633000
      8 C06          3.3650    -0.0000    -1.1940 ca         1 HW9       0.414600
      9 C08          4.0650    -0.0070    -2.5290 c3         1 HW9      -0.063700
     10 C4'          3.5730    -1.1960    -3.3580 c3         1 HW9      -0.051700
     11 C3'          4.2380    -1.1900    -4.7490 c3         1 HW9       0.176100
     12 C2'          5.0270    -2.5160    -4.8210 c3         1 HW9       0.108800
     13 N1'          4.3460    -3.4100    -3.8500 n7         1 HW9      -0.580200
     14 C5'          4.0150    -2.5230    -2.7060 c3         1 HW9       0.137800
     15 O09          5.1260    -0.0770    -4.8710 os         1 HW9      -0.407600
     16 C10          5.2570     0.4170    -6.2060 c3         1 HW9       0.206400
     17 C11          6.2260     1.6020    -6.2170 c3         1 HW9      -0.036400
     18 C12          6.3660     2.1320    -7.6450 c3         1 HW9      -0.025400
     19 C13          7.3350     3.3160    -7.6570 c3         1 HW9      -0.026400
     20 C14          7.4760     3.8450    -9.0850 c3         1 HW9      -0.068700
     21 C26          8.4290     5.0120    -9.0960 ca         1 HW9       0.380600
     22 N21          8.2080     6.0430    -8.3050 nb         1 HW9      -0.582000
     23 C22          9.0150     7.0850    -8.2810 ca         1 HW9       0.410200
     24 C23         10.1310     7.1340    -9.0930 ca         1 HW9      -0.231300
     25 C24         10.3980     6.0670    -9.9400 ca         1 HW9      -0.055300
     26 C25          9.5300     4.9860    -9.9330 ca         1 HW9      -0.219300
     27 C27         11.6090     6.0780   -10.8370 c3         1 HW9       0.063200
     28 H1          -0.5000     0.5640    -0.6580 hn         1 HW9       0.270800
     29 H2          -0.5000    -0.5960     0.6290 hn         1 HW9       0.270800
     30 H3           1.5400     0.0000     2.1480 ha         1 HW9       0.118000
     31 H4           5.1950     0.0010    -0.0790 ha         1 HW9       0.120000
     32 H5           3.7100     0.5700     3.2300 hc         1 HW9       0.009700
     33 H6           5.2170     0.4510     2.3120 hc         1 HW9       0.009700
     34 H7           4.3760    -1.0180     2.8250 hc         1 HW9       0.009700
     35 H8           3.8470     0.9150    -3.0550 hc         1 HW9       0.035200
     36 H9           5.1340    -0.0910    -2.3760 hc         1 HW9       0.035200
     37 H10          2.4940    -1.1700    -3.4590 hc         1 HW9       0.056700
     38 H11          3.4820    -1.1630    -5.5250 h1         1 HW9       0.019700
     39 H12          6.0570    -2.3560    -4.5270 h1         1 HW9       0.017200
     40 H13          4.9720    -2.9330    -5.8190 h1         1 HW9       0.017200
     41 H14          4.9820    -4.1210    -3.5470 hn         1 HW9       0.251800
     42 H16          3.2050    -2.9450    -2.1240 h1         1 HW9       0.015700
     43 H17          4.8910    -2.3650    -2.0870 h1         1 HW9       0.015700
     44 H18          5.6400    -0.3690    -6.8460 h1         1 HW9      -0.008300
     45 H19          4.2890     0.7390    -6.5690 h1         1 HW9      -0.008300
     46 H20          7.1940     1.2800    -5.8540 hc         1 HW9       0.023700
     47 H21          5.8430     2.3870    -5.5760 hc         1 HW9       0.023700
     48 H22          6.7490     1.3460    -8.2860 hc         1 HW9       0.013200
     49 H23          5.3980     2.4540    -8.0080 hc         1 HW9       0.013200
     50 H24          8.3030     2.9940    -7.2940 hc         1 HW9       0.025200
     51 H25          6.9520     4.1010    -7.0170 hc         1 HW9       0.025200
     52 H26          7.8590     3.0590    -9.7250 hc         1 HW9       0.021700
     53 H27          6.5070     4.1660    -9.4480 hc         1 HW9       0.021700
     54 H28          8.8000     7.9130    -7.6170 h4         1 HW9      -0.021900
     55 H29         10.7890     7.9940    -9.0710 ha         1 HW9       0.115000
     56 H30          9.7070     4.1360   -10.5810 ha         1 HW9       0.119000
     57 H31         11.5250     6.8920   -11.5470 hc         1 HW9       0.010700
     58 H32         12.5010     6.2120   -10.2380 hc         1 HW9       0.010700
     59 H33         11.6710     5.1380   -11.3720 hc         1 HW9       0.010700
@<TRIPOS>BOND
     1     1     2 1   
     2     1    28 1   
     3     1    29 1   
     4     2     3 ar  
     5     2     7 ar  
     6     3     4 ar  
     7     3    30 1   
     8     4     5 ar  
     9     4     6 1   
    10     5     8 ar  
    11     5    31 1   
    12     6    32 1   
    13     6    33 1   
    14     6    34 1   
    15     7     8 ar  
    16     8     9 1   
    17     9    10 1   
    18     9    35 1   
    19     9    36 1   
    20    10    11 1   
    21    10    14 1   
    22    10    37 1   
    23    11    12 1   
    24    11    15 1   
    25    11    38 1   
    26    12    13 1   
    27    12    39 1   
    28    12    40 1   
    29    13    14 1   
    30    13    41 1   
    31    14    42 1   
    32    14    43 1   
    33    15    16 1   
    34    16    17 1   
    35    16    44 1   
    36    16    45 1   
    37    17    18 1   
    38    17    46 1   
    39    17    47 1   
    40    18    19 1   
    41    18    48 1   
    42    18    49 1   
    43    19    20 1   
    44    19    50 1   
    45    19    51 1   
    46    20    21 1   
    47    20    52 1   
    48    20    53 1   
    49    21    22 ar  
    50    21    26 ar  
    51    22    23 ar  
    52    23    24 ar  
    53    23    54 1   
    54    24    25 ar  
    55    24    55 1   
    56    25    26 ar  
    57    25    27 1   
    58    26    56 1   
    59    27    57 1   
    60    27    58 1   
    61    27    59 1   
@<TRIPOS>SUBSTRUCTURE
     1 HW9         1 TEMP              0 ****  ****    0 ROOT
