@<TRIPOS>MOLECULE
HWD
   23    23     1     0     0
SMALL
bcc


@<TRIPOS>ATOM
      1 N1         -0.3440    0.2560    0.4040 n         1 HWD     -0.385000
      2 C2          0.3710    1.2930    1.0530 c         1 HWD      0.810500
      3 O2          0.1700    2.4970    0.7450 o         1 HWD     -0.713500
      4 N3          1.3240    0.9630    2.0170 n         1 HWD     -0.577500
      5 C4          1.6200   -0.3730    2.3710 c         1 HWD      0.712700
      6 O4          2.4760   -0.5790    3.2440 o         1 HWD     -0.588500
      7 C5          0.8700   -1.4070    1.6500 cc        1 HWD     -0.310200
      8 C6         -0.0660   -1.0680    0.7270 cd        1 HWD      0.050600
      9 C7         -1.4540    0.5870   -0.4680 c3        1 HWD      0.088000
     10 C8         -1.0650    1.0560   -1.8710 c3        1 HWD     -0.107500
     11 N8         -0.5850    2.4620   -1.9170 n4        1 HWD     -0.824600
     12 C9         -2.3620    0.8900   -2.8310 c         1 HWD      0.944600
     13 O91        -2.9470   -0.1990   -2.7160 o         1 HWD     -0.749800
     14 O92        -2.5810    1.8760   -3.5740 o         1 HWD     -0.749800
     15 H3          1.7930    1.7150    2.4750 hn        1 HWD      0.356500
     16 H5          1.1030   -2.4500    1.9000 ha        1 HWD      0.188000
     17 H6         -0.6560   -1.8270    0.1750 h4        1 HWD      0.183000
     18 H71        -2.0860    1.3710    0.0440 h1        1 HWD      0.107700
     19 H72        -2.0950   -0.3370   -0.6170 h1        1 HWD      0.107700
     20 H8         -0.2730    0.3970   -2.3200 hx        1 HWD      0.096700
     21 H81        -1.0390    2.9040   -2.7450 hn        1 HWD      0.453467
     22 H82         0.4260    2.5080   -2.0010 hn        1 HWD      0.453467
     23 H83        -0.8640    2.9630   -1.0660 hn        1 HWD      0.453467
@<TRIPOS>BOND
     1    1    2 1
     2    1    8 1
     3    1    9 1
     4    2    3 2
     5    2    4 1
     6    4    5 1
     7    4   15 1
     8    5    6 2
     9    5    7 1
    10    7    8 2
    11    7   16 1
    12    8   17 1
    13    9   10 1
    14    9   18 1
    15    9   19 1
    16   10   11 1
    17   10   12 1
    18   10   20 1
    19   11   21 1
    20   11   22 1
    21   11   23 1
    22   12   13 1
    23   12   14 1
@<TRIPOS>SUBSTRUCTURE
     1 HWD         1 TEMP              0 ****  ****    0 ROOT
