@<TRIPOS>MOLECULE
molecule
   57    59     1     0     0
SMALL
bcc


@<TRIPOS>ATOM
      1 C1           0.0000     0.0000     0.0000 ca         1 HWG      -0.091800
      2 C2           1.3800     0.0000     0.0000 ca         1 HWG      -0.099500
      3 C3           2.0740     0.0000     1.2110 ca         1 HWG      -0.124600
      4 C4           1.3670    -0.0110     2.4140 ca         1 HWG      -0.099500
      5 C5          -0.0130    -0.0150     2.3990 ca         1 HWG      -0.091800
      6 C6          -0.6950    -0.0100     1.1960 ca         1 HWG      -0.107000
      7 C7           2.2420     1.7470    -3.3510 ca         1 HWG      -0.106000
      8 C8           1.6010     2.2750    -4.4460 ca         1 HWG      -0.142000
      9 C9           0.9510     3.5100    -4.3700 ca         1 HWG       0.082100
     10 C10          0.9480     4.2100    -3.1730 ca         1 HWG       0.036100
     11 C11          1.5920     3.6780    -2.0630 ca         1 HWG      -0.000300
     12 C12          2.2450     2.4500    -2.1450 ca         1 HWG      -0.160600
     13 O13          0.3560     3.9530    -5.5050 os         1 HWG      -0.292900
     14 C14         -0.5920     4.9590    -5.1660 c3         1 HWG       0.078400
     15 C15          0.1090     5.9970    -4.2830 c3         1 HWG       0.083400
     16 O16          0.3350     5.4110    -3.0050 os         1 HWG      -0.289900
     17 C26         -0.7500     0.0050    -1.3060 c3         1 HWG      -0.046300
     18 C30         -0.7780    -0.0260     3.6970 c3         1 HWG      -0.046300
     19 C38          3.5510     0.0040     1.2190 c          1 HWG       0.709700
     20 C39          2.9310     1.8940    -0.9620 c          1 HWG       0.678700
     21 N40          4.2320     0.1890     0.0700 n          1 HWG      -0.339400
     22 N41          3.5800     0.7170    -1.0510 ns         1 HWG      -0.446500
     23 O42          4.1540    -0.1570     2.2620 o          1 HWG      -0.595100
     24 O43          2.9110     2.4980     0.0920 o          1 HWG      -0.576100
     25 C45          5.6510    -0.1630    -0.0050 c3         1 HWG       0.130400
     26 C46          6.1460     0.0170    -1.4410 c3         1 HWG      -0.102433
     27 C50          6.4530     0.7460     0.9270 c3         1 HWG      -0.102433
     28 C54          5.8390    -1.6210     0.4190 c3         1 HWG      -0.102433
     29 H2           1.9230     0.0080    -0.9370 ha         1 HWG       0.150500
     30 H4           1.9000    -0.0120     3.3570 ha         1 HWG       0.150500
     31 H6          -1.7780    -0.0120     1.1900 ha         1 HWG       0.130000
     32 H7           2.7470     0.7910    -3.4250 ha         1 HWG       0.126000
     33 H8           1.6000     1.7270    -5.3810 ha         1 HWG       0.149000
     34 H141        -0.9570     5.4350    -6.0680 h1         1 HWG       0.072200
     35 H142        -1.4160     4.5140    -4.6220 h1         1 HWG       0.072200
     36 H151        -0.5390     6.8570    -4.1670 h1         1 HWG       0.073200
     37 H152         1.0620     6.2540    -4.7280 h1         1 HWG       0.073200
     38 H261        -1.6360    -0.6130    -1.2160 hc         1 HWG       0.042533
     39 H262        -1.0410     1.0190    -1.5520 hc         1 HWG       0.042533
     40 H263        -0.1140    -0.3890    -2.0900 hc         1 HWG       0.042533
     41 H301        -0.6570    -0.9880     4.1800 hc         1 HWG       0.042533
     42 H302        -0.4000     0.7550     4.3460 hc         1 HWG       0.042533
     43 H303        -1.8290     0.1480     3.4980 hc         1 HWG       0.042533
     44 H341         1.0820     3.8550    -0.0030 hc         1 HWG       0.063033
     45 H342         2.6100     4.6250    -0.4510 hc         1 HWG       0.063033
     46 H343         1.0740     5.3820    -0.8960 hc         1 HWG       0.063033
     47 H41          3.5990     0.2210    -1.9210 hn         1 HWG       0.335500
     48 H461         5.5720    -0.6210    -2.1030 hc         1 HWG       0.047811
     49 H462         7.1940    -0.2520    -1.4990 hc         1 HWG       0.047811
     50 H463         6.0220     1.0510    -1.7390 hc         1 HWG       0.047811
     51 H501         7.5010     0.7070     0.6560 hc         1 HWG       0.047811
     52 H502         6.0930     1.7640     0.8360 hc         1 HWG       0.047811
     53 H503         6.3320     0.4100     1.9500 hc         1 HWG       0.047811
     54 H541         5.7350    -1.7010     1.4950 hc         1 HWG       0.047811
     55 H542         5.0890    -2.2370    -0.0630 hc         1 HWG       0.047811
     56 H543         6.8260    -1.9580     0.1260 hc         1 HWG       0.047811
     57 C34          1.5900     4.4380    -0.7620 c3         1 HWG      -0.044800
@<TRIPOS>BOND
     1     1     2 ar
     2     1     6 ar
     3     1    17 1
     4     2     3 ar
     5     2    29 1
     6     3     4 ar
     7     3    19 1
     8     4     5 ar
     9     4    30 1
    10     5     6 ar
    11     5    18 1
    12     6    31 1
    13     7     8 ar
    14     7    12 ar
    15     7    32 1
    16     8     9 ar
    17     8    33 1
    18     9    10 ar
    19     9    13 1
    20    10    11 ar
    21    10    16 1
    22    11    12 ar
    23    11    57 1
    24    12    20 1
    25    13    14 1
    26    14    15 1
    27    14    34 1
    28    14    35 1
    29    15    16 1
    30    15    36 1
    31    15    37 1
    32    17    38 1
    33    17    39 1
    34    17    40 1
    35    18    41 1
    36    18    42 1
    37    18    43 1
    38    57    44 1
    39    57    45 1
    40    57    46 1
    41    19    21 1
    42    19    23 2
    43    20    22 1
    44    20    24 2
    45    21    22 1
    46    21    25 1
    47    22    47 1
    48    25    26 1
    49    25    27 1
    50    25    28 1
    51    26    48 1
    52    26    49 1
    53    26    50 1
    54    27    51 1
    55    27    52 1
    56    27    53 1
    57    28    54 1
    58    28    55 1
    59    28    56 1
@<TRIPOS>SUBSTRUCTURE
     1 HWG         1 TEMP              0 ****  ****    0 ROOT
