@<TRIPOS>MOLECULE
molecule
  101   100     1     0     0
SMALL
bcc


@<TRIPOS>ATOM
      1 CAH          0.0000     0.0000     0.0000 c3         1 HX0      -0.092100
      2 CAG          1.5300     0.0000     0.0000 c3         1 HX0      -0.083400
      3 CAF          2.0400     0.0000     1.4420 c3         1 HX0      -0.081400
      4 CAE          3.5700    -0.0000     1.4420 c3         1 HX0      -0.081400
      5 CAD          4.0810     0.0000     2.8840 c3         1 HX0      -0.080400
      6 CAC          5.6110    -0.0010     2.8840 c3         1 HX0      -0.078400
      7 CAB          6.1210     0.0000     4.3260 c3         1 HX0      -0.110400
      8 CAA          7.6510    -0.0010     4.3260 c3         1 HX0       0.096800
      9 NAQ          8.1410    -0.0000     5.7100 n4         1 HX0      -0.568800
     10 CAP          9.6100    -0.0000     5.7100 c3         1 HX0       0.096800
     11 CAO         10.1210    -0.0000     7.1520 c3         1 HX0      -0.110400
     12 CAN         11.6500    -0.0000     7.1520 c3         1 HX0      -0.078400
     13 CAM         12.1610    -0.0000     8.5940 c3         1 HX0      -0.080400
     14 CAL         13.6910    -0.0010     8.5940 c3         1 HX0      -0.081400
     15 CAK         14.2020    -0.0000    10.0360 c3         1 HX0      -0.081400
     16 CAJ         15.7310    -0.0010    10.0360 c3         1 HX0      -0.083400
     17 CAI         16.2420    -0.0000    11.4780 c3         1 HX0      -0.092100
     18 CAZ          7.6520     1.2000     6.4020 c3         1 HX0       0.096800
     19 CBA          8.1620     2.4490     5.6810 c3         1 HX0      -0.110400
     20 CBB          7.6530     3.6980     6.4010 c3         1 HX0      -0.078400
     21 CBC          8.1630     4.9470     5.6790 c3         1 HX0      -0.080400
     22 CBD          7.6540     6.1970     6.4000 c3         1 HX0      -0.081400
     23 CBE          8.1640     7.4460     5.6780 c3         1 HX0      -0.081400
     24 CBF          7.6550     8.6950     6.3990 c3         1 HX0      -0.083400
     25 CBG          8.1650     9.9440     5.6770 c3         1 HX0      -0.092100
     26 CAR          7.6520    -1.1990     6.4040 c3         1 HX0       0.096800
     27 CAS          8.1600    -2.4490     5.6830 c3         1 HX0      -0.110400
     28 CAT          7.6510    -3.6970     6.4050 c3         1 HX0      -0.078400
     29 CAU          8.1600    -4.9470     5.6840 c3         1 HX0      -0.080400
     30 CAV          7.6490    -6.1960     6.4060 c3         1 HX0      -0.081400
     31 CAW          8.1590    -7.4460     5.6850 c3         1 HX0      -0.081400
     32 CAX          7.6480    -8.6940     6.4070 c3         1 HX0      -0.083400
     33 CAY          8.1580    -9.9440     5.6870 c3         1 HX0      -0.092100
     34 HAH1        -0.3610     0.0000    -1.0210 hc         1 HX0       0.037450
     35 HAH2        -0.3610     0.8850     0.5110 hc         1 HX0       0.037450
     36 HAH3        -0.3610    -0.8850     0.5110 hc         1 HX0       0.037450
     37 HAG1         1.8910    -0.8840    -0.5110 hc         1 HX0       0.042700
     38 HAG2         1.8910     0.8840    -0.5110 hc         1 HX0       0.042700
     39 HAF1         1.6790     0.8840     1.9520 hc         1 HX0       0.043700
     40 HAF2         1.6790    -0.8840     1.9520 hc         1 HX0       0.043700
     41 HAE1         3.9310    -0.8840     0.9310 hc         1 HX0       0.045700
     42 HAE2         3.9310     0.8840     0.9310 hc         1 HX0       0.045700
     43 HAD1         3.7190    -0.8840     3.3950 hc         1 HX0       0.046700
     44 HAD2         3.7210     0.8850     3.3950 hc         1 HX0       0.046700
     45 HAC1         5.9730     0.8830     2.3720 hc         1 HX0       0.053700
     46 HAC2         5.9710    -0.8860     2.3740 hc         1 HX0       0.053700
     47 HAB1         5.7600     0.8850     4.8350 hc         1 HX0       0.061700
     48 HAB2         5.7590    -0.8840     4.8370 hc         1 HX0       0.061700
     49 HAA          8.0120    -0.8860     3.8160 hx         1 HX0       0.100700
     50 HAP          9.9710    -0.8850     5.1990 hx         1 HX0       0.100700
     51 HAZ          8.0130     1.2000     7.4240 hx         1 HX0       0.100700
     52 HAR          8.0130    -1.1990     7.4250 hx         1 HX0       0.100700
     53 HAO1         9.7600    -0.8850     7.6630 hc         1 HX0       0.061700
     54 HAO2         9.7600     0.8840     7.6630 hc         1 HX0       0.061700
     55 HAN1        12.0110    -0.8850     6.6410 hc         1 HX0       0.053700
     56 HAN2        12.0110     0.8840     6.6410 hc         1 HX0       0.053700
     57 HAM1        11.7990    -0.8840     9.1050 hc         1 HX0       0.046700
     58 HAM2        11.8010     0.8850     9.1050 hc         1 HX0       0.046700
     59 HAL1        14.0530     0.8830     8.0820 hc         1 HX0       0.045700
     60 HAL2        14.0520    -0.8860     8.0840 hc         1 HX0       0.045700
     61 HAK1        13.8420     0.8850    10.5460 hc         1 HX0       0.043700
     62 HAK2        13.8400    -0.8840    10.5480 hc         1 HX0       0.043700
     63 HAJ1        16.0910    -0.8860     9.5260 hc         1 HX0       0.042700
     64 HAJ2        16.0930     0.8830     9.5240 hc         1 HX0       0.042700
     65 HAI1        15.8810    -0.8840    11.9900 hc         1 HX0       0.037450
     66 HAI2        15.8820     0.8850    11.9880 hc         1 HX0       0.037450
     67 HAI3        17.3250    -0.0010    11.4770 hc         1 HX0       0.037450
     68 HBA1         7.8020     2.4490     4.6590 hc         1 HX0       0.061700
     69 HBA2         9.2460     2.4490     5.6810 hc         1 HX0       0.061700
     70 HBB1         8.0140     3.6980     7.4220 hc         1 HX0       0.053700
     71 HBB2         6.5690     3.6980     6.4010 hc         1 HX0       0.053700
     72 HBC1         9.2470     4.9460     5.6790 hc         1 HX0       0.046700
     73 HBC2         7.8020     4.9470     4.6580 hc         1 HX0       0.046700
     74 HBD1         8.0160     6.1970     7.4210 hc         1 HX0       0.045700
     75 HBD2         6.5710     6.1970     6.4010 hc         1 HX0       0.045700
     76 HBE1         7.8020     7.4460     4.6570 hc         1 HX0       0.043700
     77 HBE2         9.2470     7.4460     5.6770 hc         1 HX0       0.043700
     78 HBF1         8.0170     8.6950     7.4200 hc         1 HX0       0.042700
     79 HBF2         6.5720     8.6950     6.4000 hc         1 HX0       0.042700
     80 HBG1         7.8030     9.9440     4.6560 hc         1 HX0       0.037450
     81 HBG2         9.2480     9.9440     5.6760 hc         1 HX0       0.037450
     82 HBG3         7.8040    10.8290     6.1880 hc         1 HX0       0.037450
     83 HAS1         9.2440    -2.4500     5.6820 hc         1 HX0       0.061700
     84 HAS2         7.7990    -2.4500     4.6620 hc         1 HX0       0.061700
     85 HAT1         6.5670    -3.6970     6.4060 hc         1 HX0       0.053700
     86 HAT2         8.0130    -3.6970     7.4260 hc         1 HX0       0.053700
     87 HAU1         7.7980    -4.9470     4.6630 hc         1 HX0       0.046700
     88 HAU2         9.2430    -4.9480     5.6840 hc         1 HX0       0.046700
     89 HAV1         6.5660    -6.1960     6.4050 hc         1 HX0       0.045700
     90 HAV2         8.0100    -6.1960     7.4270 hc         1 HX0       0.045700
     91 HAW1         7.7980    -7.4470     4.6640 hc         1 HX0       0.043700
     92 HAW2         9.2420    -7.4470     5.6860 hc         1 HX0       0.043700
     93 HAX1         6.5650    -8.6940     6.4070 hc         1 HX0       0.042700
     94 HAX2         8.0090    -8.6940     7.4280 hc         1 HX0       0.042700
     95 HAB          8.0130     0.8830     3.8140 hx         1 HX0       0.100700
     96 HAQ          9.9710     0.8840     5.1990 hx         1 HX0       0.100700
     97 HBA          6.5690     1.2000     6.4020 hx         1 HX0       0.100700
     98 HAO          6.5680    -1.1990     6.4050 hx         1 HX0       0.100700
     99 HAY1         7.7960   -10.8280     6.1980 hc         1 HX0       0.037450
    100 HAY2         9.2410    -9.9450     5.6870 hc         1 HX0       0.037450
    101 HAY3         7.7970    -9.9450     4.6650 hc         1 HX0       0.037450
@<TRIPOS>BOND
     1     1     2 1
     2     2     3 1
     3     3     4 1
     4     4     5 1
     5     5     6 1
     6     6     7 1
     7     7     8 1
     8     8     9 1
     9     8    95 1
    10     9    10 1
    11     9    18 1
    12     9    26 1
    13    10    11 1
    14    10    96 1
    15    11    12 1
    16    12    13 1
    17    13    14 1
    18    14    15 1
    19    15    16 1
    20    16    17 1
    21    18    19 1
    22    32    33 1
    23    18    97 1
    24    19    20 1
    25    20    21 1
    26    21    22 1
    27    22    23 1
    28    23    24 1
    29    24    25 1
    30    26    27 1
    31    27    28 1
    32    28    29 1
    33    29    30 1
    34    30    31 1
    35    31    32 1
    36    26    98 1
    37     1    34 1
    38     1    35 1
    39     1    36 1
    40     2    37 1
    41     2    38 1
    42     3    39 1
    43     3    40 1
    44     4    41 1
    45     4    42 1
    46     5    43 1
    47     5    44 1
    48     6    45 1
    49     6    46 1
    50     7    47 1
    51     7    48 1
    52     8    49 1
    53    10    50 1
    54    18    51 1
    55    26    52 1
    56    11    53 1
    57    11    54 1
    58    12    55 1
    59    12    56 1
    60    13    57 1
    61    13    58 1
    62    14    59 1
    63    14    60 1
    64    15    61 1
    65    15    62 1
    66    16    63 1
    67    16    64 1
    68    17    65 1
    69    17    66 1
    70    17    67 1
    71    19    68 1
    72    19    69 1
    73    20    70 1
    74    20    71 1
    75    21    72 1
    76    21    73 1
    77    22    74 1
    78    22    75 1
    79    23    76 1
    80    23    77 1
    81    24    78 1
    82    24    79 1
    83    25    80 1
    84    25    81 1
    85    25    82 1
    86    27    83 1
    87    27    84 1
    88    28    85 1
    89    28    86 1
    90    29    87 1
    91    29    88 1
    92    30    89 1
    93    30    90 1
    94    31    91 1
    95    31    92 1
    96    32    93 1
    97    32    94 1
    98    33    99 1
    99    33   100 1
   100    33   101 1
@<TRIPOS>SUBSTRUCTURE
     1 HX0         1 TEMP              0 ****  ****    0 ROOT
