@<TRIPOS>MOLECULE
HX0
  101   100     1     0     0
SMALL
bcc


@<TRIPOS>ATOM
      1 CAH          0.0000     0.0000     0.0000 c3         1 HX0       0.006900
      2 CAG          1.5300     0.0000     0.0000 c3         1 HX0      -0.027400
      3 CAF          2.0400     0.0000     1.4420 c3         1 HX0      -0.028400
      4 CAE          3.5700    -0.0000     1.4420 c3         1 HX0      -0.027400
      5 CAD          4.0810     0.0000     2.8840 c3         1 HX0      -0.026650
      6 CAC          5.6110    -0.0010     2.8840 c3         1 HX0      -0.019400
      7 CAB          6.1210     0.0000     4.3260 c3         1 HX0      -0.054400
      8 CAA          7.6510    -0.0010     4.3260 c3         1 HX0      -0.039200
      9 NAQ          8.1410    -0.0000     5.7100 n4         1 HX0       0.066200
     10 CAP          9.6100    -0.0000     5.7100 c3         1 HX0      -0.039200
     11 CAO         10.1210    -0.0000     7.1520 c3         1 HX0      -0.054400
     12 CAN         11.6500    -0.0000     7.1520 c3         1 HX0      -0.019400
     13 CAM         12.1610    -0.0000     8.5940 c3         1 HX0      -0.026650
     14 CAL         13.6910    -0.0010     8.5940 c3         1 HX0      -0.027400
     15 CAK         14.2020    -0.0000    10.0360 c3         1 HX0      -0.028400
     16 CAJ         15.7310    -0.0010    10.0360 c3         1 HX0      -0.027400
     17 CAI         16.2420    -0.0000    11.4780 c3         1 HX0       0.006900
     18 CAZ          7.6520     1.2000     6.4020 c3         1 HX0      -0.039200
     19 CBA          8.1620     2.4490     5.6810 c3         1 HX0      -0.054400
     20 CBB          7.6530     3.6980     6.4010 c3         1 HX0      -0.019400
     21 CBC          8.1630     4.9470     5.6790 c3         1 HX0      -0.026650
     22 CBD          7.6540     6.1970     6.4000 c3         1 HX0      -0.027400
     23 CBE          8.1640     7.4460     5.6780 c3         1 HX0      -0.028400
     24 CBF          7.6550     8.6950     6.3990 c3         1 HX0      -0.027400
     25 CBG          8.1650     9.9440     5.6770 c3         1 HX0       0.006900
     26 CAR          7.6520    -1.1990     6.4040 c3         1 HX0      -0.039200
     27 CAS          8.1600    -2.4490     5.6830 c3         1 HX0      -0.054400
     28 CAT          7.6510    -3.6970     6.4050 c3         1 HX0      -0.019400
     29 CAU          8.1600    -4.9470     5.6840 c3         1 HX0      -0.026650
     30 CAV          7.6490    -6.1960     6.4060 c3         1 HX0      -0.027400
     31 CAW          8.1590    -7.4460     5.6850 c3         1 HX0      -0.028400
     32 CAX          7.6480    -8.6940     6.4070 c3         1 HX0      -0.027400
     33 CAY          8.1580    -9.9440     5.6870 c3         1 HX0       0.006900
     34 HAH1        -0.3610     0.0000    -1.0210 hc         1 HX0       0.004367
     35 HAH2        -0.3610     0.8850     0.5110 hc         1 HX0       0.004367
     36 HAH3        -0.3610    -0.8850     0.5110 hc         1 HX0       0.004367
     37 HAG1         1.8910    -0.8840    -0.5110 hc         1 HX0       0.013700
     38 HAG2         1.8910     0.8840    -0.5110 hc         1 HX0       0.013700
     39 HAF1         1.6790     0.8840     1.9520 hc         1 HX0       0.016700
     40 HAF2         1.6790    -0.8840     1.9520 hc         1 HX0       0.016700
     41 HAE1         3.9310    -0.8840     0.9310 hc         1 HX0       0.018700
     42 HAE2         3.9310     0.8840     0.9310 hc         1 HX0       0.018700
     43 HAD1         3.7190    -0.8840     3.3950 hc         1 HX0       0.018700
     44 HAD2         3.7210     0.8850     3.3950 hc         1 HX0       0.018700
     45 HAC1         5.9730     0.8830     2.3720 hc         1 HX0       0.025700
     46 HAC2         5.9710    -0.8860     2.3740 hc         1 HX0       0.025700
     47 HAB1         5.7600     0.8850     4.8350 hc         1 HX0       0.038450
     48 HAB2         5.7590    -0.8840     4.8370 hc         1 HX0       0.038450
     49 HAA          8.0120    -0.8860     3.8160 hx         1 HX0       0.086700
     50 HAP          9.9710    -0.8850     5.1990 hx         1 HX0       0.086700
     51 HAZ          8.0130     1.2000     7.4240 hx         1 HX0       0.086700
     52 HAR          8.0130    -1.1990     7.4250 hx         1 HX0       0.086700
     53 HAO1         9.7600    -0.8850     7.6630 hc         1 HX0       0.038450
     54 HAO2         9.7600     0.8840     7.6630 hc         1 HX0       0.038450
     55 HAN1        12.0110    -0.8850     6.6410 hc         1 HX0       0.025700
     56 HAN2        12.0110     0.8840     6.6410 hc         1 HX0       0.025700
     57 HAM1        11.7990    -0.8840     9.1050 hc         1 HX0       0.018700
     58 HAM2        11.8010     0.8850     9.1050 hc         1 HX0       0.018700
     59 HAL1        14.0530     0.8830     8.0820 hc         1 HX0       0.018700
     60 HAL2        14.0520    -0.8860     8.0840 hc         1 HX0       0.018700
     61 HAK1        13.8420     0.8850    10.5460 hc         1 HX0       0.016700
     62 HAK2        13.8400    -0.8840    10.5480 hc         1 HX0       0.016700
     63 HAJ1        16.0910    -0.8860     9.5260 hc         1 HX0       0.013700
     64 HAJ2        16.0930     0.8830     9.5240 hc         1 HX0       0.013700
     65 HAI1        15.8810    -0.8840    11.9900 hc         1 HX0       0.004367
     66 HAI2        15.8820     0.8850    11.9880 hc         1 HX0       0.004367
     67 HAI3        17.3250    -0.0010    11.4770 hc         1 HX0       0.004367
     68 HBA1         7.8020     2.4490     4.6590 hc         1 HX0       0.038450
     69 HBA2         9.2460     2.4490     5.6810 hc         1 HX0       0.038450
     70 HBB1         8.0140     3.6980     7.4220 hc         1 HX0       0.025700
     71 HBB2         6.5690     3.6980     6.4010 hc         1 HX0       0.025700
     72 HBC1         9.2470     4.9460     5.6790 hc         1 HX0       0.018700
     73 HBC2         7.8020     4.9470     4.6580 hc         1 HX0       0.018700
     74 HBD1         8.0160     6.1970     7.4210 hc         1 HX0       0.018700
     75 HBD2         6.5710     6.1970     6.4010 hc         1 HX0       0.018700
     76 HBE1         7.8020     7.4460     4.6570 hc         1 HX0       0.016700
     77 HBE2         9.2470     7.4460     5.6770 hc         1 HX0       0.016700
     78 HBF1         8.0170     8.6950     7.4200 hc         1 HX0       0.013700
     79 HBF2         6.5720     8.6950     6.4000 hc         1 HX0       0.013700
     80 HBG1         7.8030     9.9440     4.6560 hc         1 HX0       0.004367
     81 HBG2         9.2480     9.9440     5.6760 hc         1 HX0       0.004367
     82 HBG3         7.8040    10.8290     6.1880 hc         1 HX0       0.004367
     83 HAS1         9.2440    -2.4500     5.6820 hc         1 HX0       0.038450
     84 HAS2         7.7990    -2.4500     4.6620 hc         1 HX0       0.038450
     85 HAT1         6.5670    -3.6970     6.4060 hc         1 HX0       0.025700
     86 HAT2         8.0130    -3.6970     7.4260 hc         1 HX0       0.025700
     87 HAU1         7.7980    -4.9470     4.6630 hc         1 HX0       0.018700
     88 HAU2         9.2430    -4.9480     5.6840 hc         1 HX0       0.018700
     89 HAV1         6.5660    -6.1960     6.4050 hc         1 HX0       0.018700
     90 HAV2         8.0100    -6.1960     7.4270 hc         1 HX0       0.018700
     91 HAW1         7.7980    -7.4470     4.6640 hc         1 HX0       0.016700
     92 HAW2         9.2420    -7.4470     5.6860 hc         1 HX0       0.016700
     93 HAX1         6.5650    -8.6940     6.4070 hc         1 HX0       0.013700
     94 HAX2         8.0090    -8.6940     7.4280 hc         1 HX0       0.013700
     95 HAB          8.0130     0.8830     3.8140 hx         1 HX0       0.086700
     96 HAQ          9.9710     0.8840     5.1990 hx         1 HX0       0.086700
     97 HBA          6.5690     1.2000     6.4020 hx         1 HX0       0.086700
     98 HAO          6.5680    -1.1990     6.4050 hx         1 HX0       0.086700
     99 HAY1         7.7960   -10.8280     6.1980 hc         1 HX0       0.004367
    100 HAY2         9.2410    -9.9450     5.6870 hc         1 HX0       0.004367
    101 HAY3         7.7970    -9.9450     4.6650 hc         1 HX0       0.004367
@<TRIPOS>BOND
     1     1     2 1   
     2     1    34 1   
     3     1    35 1   
     4     1    36 1   
     5     2     3 1   
     6     2    37 1   
     7     2    38 1   
     8     3     4 1   
     9     3    39 1   
    10     3    40 1   
    11     4     5 1   
    12     4    41 1   
    13     4    42 1   
    14     5     6 1   
    15     5    43 1   
    16     5    44 1   
    17     6     7 1   
    18     6    45 1   
    19     6    46 1   
    20     7     8 1   
    21     7    47 1   
    22     7    48 1   
    23     8     9 1   
    24     8    49 1   
    25     8    95 1   
    26     9    10 1   
    27     9    18 1   
    28     9    26 1   
    29    10    11 1   
    30    10    50 1   
    31    10    96 1   
    32    11    12 1   
    33    11    53 1   
    34    11    54 1   
    35    12    13 1   
    36    12    55 1   
    37    12    56 1   
    38    13    14 1   
    39    13    57 1   
    40    13    58 1   
    41    14    15 1   
    42    14    59 1   
    43    14    60 1   
    44    15    16 1   
    45    15    61 1   
    46    15    62 1   
    47    16    17 1   
    48    16    63 1   
    49    16    64 1   
    50    17    65 1   
    51    17    66 1   
    52    17    67 1   
    53    18    19 1   
    54    18    51 1   
    55    18    97 1   
    56    19    20 1   
    57    19    68 1   
    58    19    69 1   
    59    20    21 1   
    60    20    70 1   
    61    20    71 1   
    62    21    22 1   
    63    21    72 1   
    64    21    73 1   
    65    22    23 1   
    66    22    74 1   
    67    22    75 1   
    68    23    24 1   
    69    23    76 1   
    70    23    77 1   
    71    24    25 1   
    72    24    78 1   
    73    24    79 1   
    74    25    80 1   
    75    25    81 1   
    76    25    82 1   
    77    26    27 1   
    78    26    52 1   
    79    26    98 1   
    80    27    28 1   
    81    27    83 1   
    82    27    84 1   
    83    28    29 1   
    84    28    85 1   
    85    28    86 1   
    86    29    30 1   
    87    29    87 1   
    88    29    88 1   
    89    30    31 1   
    90    30    89 1   
    91    30    90 1   
    92    31    32 1   
    93    31    91 1   
    94    31    92 1   
    95    32    33 1   
    96    32    93 1   
    97    32    94 1   
    98    33    99 1   
    99    33   100 1   
   100    33   101 1   
@<TRIPOS>SUBSTRUCTURE
     1 HX0         1 TEMP              0 ****  ****    0 ROOT
