@<TRIPOS>MOLECULE
HX2
   22    21     1     0     0
SMALL
bcc


@<TRIPOS>ATOM
      1 C1          0.0380   -0.0510   -0.0840 c3        1 HX2     -0.131100
      2 O1          2.0520    1.1710   -0.6640 oh        1 HX2     -0.597800
      3 C2          1.5540   -0.0050   -0.0340 c3        1 HX2      0.139100
      4 O2          3.7570    1.1400    3.4840 oh        1 HX2     -0.597800
      5 C3          2.0530    0.0180    1.4080 c3        1 HX2     -0.072400
      6 C4          3.5580   -0.1050    1.4750 c3        1 HX2     -0.072400
      7 C5          4.0510   -0.1340    2.9180 c3        1 HX2      0.139100
      8 C6          5.5400   -0.4250    2.9780 c3        1 HX2     -0.131100
      9 H1         -0.3920    0.8490    0.4160 hc        1 HX2      0.042367
     10 H1A        -0.3360   -0.9650    0.4350 hc        1 HX2      0.042367
     11 H1B        -0.3150   -0.0710   -1.1430 hc        1 HX2      0.042367
     12 HO1         1.6450    1.2110   -1.5380 ho        1 HX2      0.396000
     13 H2          1.9770   -0.9050   -0.5690 h1        1 HX2      0.026700
     14 H3          1.7410    0.9780    1.8960 hc        1 HX2      0.056700
     15 H3A         1.5690   -0.8280    1.9620 hc        1 HX2      0.056700
     16 H4          3.8930   -1.0470    0.9690 hc        1 HX2      0.056700
     17 H4A         4.0200    0.7640    0.9380 hc        1 HX2      0.056700
     18 H5          3.4890   -0.9220    3.4980 h1        1 HX2      0.026700
     19 H6          5.7560   -1.4150    2.5090 hc        1 HX2      0.042367
     20 H6A         6.1100    0.3640    2.4330 hc        1 HX2      0.042367
     21 H6B         5.8890   -0.4470    4.0380 hc        1 HX2      0.042367
     22 HO2         4.1690    1.1590    4.3550 ho        1 HX2      0.396000
@<TRIPOS>BOND
     1    1    3 1   
     2    1    9 1   
     3    1   10 1   
     4    1   11 1   
     5    2    3 1   
     6    2   12 1   
     7    3    5 1   
     8    3   13 1   
     9    4    7 1   
    10    4   22 1   
    11    5    6 1   
    12    5   14 1   
    13    5   15 1   
    14    6    7 1   
    15    6   16 1   
    16    6   17 1   
    17    7    8 1   
    18    7   18 1   
    19    8   19 1   
    20    8   20 1   
    21    8   21 1   
@<TRIPOS>SUBSTRUCTURE
     1 HX2         1 TEMP              0 ****  ****    0 ROOT
