@<TRIPOS>MOLECULE
molecule
   22    21     1     0     0
SMALL
bcc


@<TRIPOS>ATOM
      1 C1           0.0000     0.0000     0.0000 c3         1 HX2      -0.120100
      2 O1           2.0060     1.1680    -0.6740 oh         1 HX2      -0.603300
      3 C2           1.5300     0.0000     0.0000 c3         1 HX2       0.143600
      4 O2           3.8010     1.1390     3.4880 oh         1 HX2      -0.603300
      5 C3           2.0410     0.0000     1.4420 c3         1 HX2      -0.076400
      6 C4           3.5660    -0.1260     1.4430 c3         1 HX2      -0.076400
      7 C5           4.0770    -0.1260     2.8850 c3         1 HX2       0.143600
      8 C6           5.5860    -0.3760     2.8920 c3         1 HX2      -0.120100
      9 H1          -0.3610    -0.8900     0.5010 hc         1 HX2       0.040367
     10 H1A         -0.3610     0.8790     0.5200 hc         1 HX2       0.040367
     11 H1B         -0.3610     0.0110    -1.0210 hc         1 HX2       0.040367
     12 HO1          2.0610     0.9960    -1.5990 ho         1 HX2       0.398000
     13 H2           1.8910    -0.8840    -0.5110 h1         1 HX2       0.024200
     14 H3           1.6090    -0.8360     1.9780 hc         1 HX2       0.056200
     15 H3A          1.7550     0.9260     1.9260 hc         1 HX2       0.056200
     16 H4           3.8520    -1.0520     0.9580 hc         1 HX2       0.056200
     17 H4A          3.9980     0.7100     0.9070 hc         1 HX2       0.056200
     18 H5           3.5790    -0.9090     3.4440 h1         1 HX2       0.024200
     19 H6           5.9500    -0.3660     3.9120 hc         1 HX2       0.040367
     20 H6A          6.0840     0.4010     2.3230 hc         1 HX2       0.040367
     21 H6B          5.7950    -1.3400     2.4440 hc         1 HX2       0.040367
     22 HO2          3.7230     1.0320     4.4220 ho         1 HX2       0.398000
@<TRIPOS>BOND
     1     1     3 1
     2     2     3 1
     3     3     5 1
     4     4     7 1
     5     5     6 1
     6     6     7 1
     7     7     8 1
     8     1     9 1
     9     1    10 1
    10     1    11 1
    11     2    12 1
    12     3    13 1
    13     4    22 1
    14     5    14 1
    15     5    15 1
    16     6    16 1
    17     6    17 1
    18     7    18 1
    19     8    19 1
    20     8    20 1
    21     8    21 1
@<TRIPOS>SUBSTRUCTURE
     1 HX2         1 TEMP              0 ****  ****    0 ROOT
