@<TRIPOS>MOLECULE
HX3
   17    17     1     0     0
SMALL
bcc


@<TRIPOS>ATOM
      1 C1           0.0000     0.0000     0.0000 ca         1 HX3      -0.005600
      2 C2           1.3860     0.0000     0.0000 ca         1 HX3      -0.051600
      3 C3           2.0800     0.0000     1.1960 ca         1 HX3      -0.028000
      4 C4           1.3940     0.0010     2.3960 ca         1 HX3      -0.089000
      5 C5           0.0050     0.0010     2.4000 ca         1 HX3      -0.009400
      6 C6          -0.6910     0.0070     1.1970 ca         1 HX3      -0.164000
      7 Cl7         -0.8680    -0.0000    -1.5030 cl         1 HX3       0.064600
      8 Cl8          2.2520    -0.0020    -1.5050 cl         1 HX3       0.073600
      9 N9          -0.6920     0.0020     3.6110 nu         1 HX3      -0.485400
     10 N10         -2.0580     0.0020     3.6140 nz         1 HX3       0.311600
     11 H1           3.1630    -0.0010     1.1930 ha         1 HX3       0.138000
     12 H2           1.9380    -0.0380     3.3310 ha         1 HX3       0.125000
     13 H3          -1.7730     0.0590     1.1980 ha         1 HX3       0.097000
     14 H4          -0.1900     0.0030     4.4770 hn         1 HX3       0.381800
     15 H5          -2.3890    -0.0120     4.5580 hn         1 HX3       0.213467
     16 H6          -2.3920    -0.8080     3.1310 hn         1 HX3       0.213467
     17 H103        -2.3920     0.8260     3.1550 hn         1 HX3       0.213467
@<TRIPOS>BOND
     1     1     2 ar  
     2     1     6 ar  
     3     1     7 1   
     4     2     3 ar  
     5     2     8 1   
     6     3     4 ar  
     7     3    11 1   
     8     4     5 ar  
     9     4    12 1   
    10     5     6 ar  
    11     5     9 1   
    12     6    13 1   
    13     9    10 1   
    14     9    14 1   
    15    10    15 1   
    16    10    16 1   
    17    10    17 1   
@<TRIPOS>SUBSTRUCTURE
     1 HX3         1 TEMP              0 ****  ****    0 ROOT
