@<TRIPOS>MOLECULE
molecule
   21    22     1     0     0
SMALL
bcc


@<TRIPOS>ATOM
      1 C1           0.0000     0.0000     0.0000 ca         1 HX4      -0.124000
      2 C2           1.3830     0.0000     0.0000 ca         1 HX4      -0.123000
      3 C3           2.0810     0.0000     1.1940 ca         1 HX4      -0.124000
      4 C4           1.4000    -0.0010     2.3940 ca         1 HX4      -0.114500
      5 C5           0.0050    -0.0010     2.4010 ca         1 HX4      -0.022000
      6 C6          -0.6930     0.0000     1.1940 ca         1 HX4      -0.114500
      7 C7          -0.7310    -0.0020     3.6850 cc         1 HX4      -0.025300
      8 N8          -0.1800    -0.0030     4.9310 na         1 HX4      -0.040600
      9 N9          -1.2260    -0.0040     5.8630 nc         1 HX4      -0.524800
     10 C10         -2.3650    -0.0040     5.2110 cd         1 HX4       0.594200
     11 C11         -2.0890     0.0030     3.8380 cd         1 HX4      -0.340300
     12 N12         -3.6390    -0.0060     5.7900 nv         1 HX4      -1.062500
     13 H1          -0.5410     0.0000    -0.9390 ha         1 HX4       0.133000
     14 H2           1.9220     0.0000    -0.9400 ha         1 HX4       0.132000
     15 H3           3.1640     0.0000     1.1880 ha         1 HX4       0.133000
     16 H4           1.9470    -0.0010     3.3290 ha         1 HX4       0.131500
     17 H5          -1.7760     0.0000     1.1920 ha         1 HX4       0.131500
     18 H6           0.7980    -0.0030     5.1430 hn         1 HX4       0.330700
     19 H7          -2.8210     0.0040     3.0400 ha         1 HX4       0.157000
     20 H8          -4.0900    -0.8730     6.0050 hn         1 HX4       0.435800
     21 H9          -4.0900     0.8600     6.0100 hn         1 HX4       0.435800
@<TRIPOS>BOND
     1     1     2 ar
     2     1     6 ar
     3     2     3 ar
     4     6     5 ar
     5     3     4 ar
     6     5     4 ar
     7     5     7 1
     8    11     7 2
     9    11    10 1
    10     7     8 1
    11    10    12 1
    12    10     9 2
    13     8     9 1
    14     1    13 1
    15     2    14 1
    16     3    15 1
    17     4    16 1
    18     6    17 1
    19     8    18 1
    20    11    19 1
    21    12    20 1
    22    12    21 1
@<TRIPOS>SUBSTRUCTURE
     1 HX4         1 TEMP              0 ****  ****    0 ROOT
