@<TRIPOS>MOLECULE
molecule
   14    14     1     0     0
SMALL
bcc


@<TRIPOS>ATOM
      1 C1           0.0000     0.0000     0.0000 ca         1 HX5      -0.375600
      2 C2           1.3870     0.0000     0.0000 ca         1 HX5       0.576800
      3 N3           2.0330     0.0000     1.1560 nb         1 HX5      -0.740000
      4 C4           1.3690     0.0020     2.3030 ca         1 HX5       0.819300
      5 N5           0.0440     0.0020     2.3390 nb         1 HX5      -0.740000
      6 C6          -0.6630     0.0070     1.2190 ca         1 HX5       0.576800
      7 S7           2.2690     0.0030     3.8170 ss         1 HX5      -0.224400
      8 C8           0.8980     0.0040     4.9980 c3         1 HX5      -0.028000
      9 Cl9         -2.3980     0.0060     1.2750 cl         1 HX5      -0.130000
     10 Cl1          2.2650    -0.0020    -1.4980 cl         1 HX5      -0.130000
     11 H1          -0.5540     0.0020    -0.9310 ha         1 HX5       0.169000
     12 H2           0.2910    -0.8810     4.8480 h1         1 HX5       0.075367
     13 H3           1.2910     0.0040     6.0080 h1         1 HX5       0.075367
     14 H4           0.2910     0.8880     4.8470 h1         1 HX5       0.075367
@<TRIPOS>BOND
     1     9     6 1
     2     5     6 ar
     3     5     4 ar
     4     6     1 ar
     5     7     4 1
     6     7     8 1
     7     4     3 ar
     8     1     2 ar
     9     3     2 ar
    10     2    10 1
    11     1    11 1
    12     8    12 1
    13     8    13 1
    14     8    14 1
@<TRIPOS>SUBSTRUCTURE
     1 HX5         1 TEMP              0 ****  ****    0 ROOT
