@<TRIPOS>MOLECULE
molecule
   61    62     1     0     0
SMALL
bcc


@<TRIPOS>ATOM
      1 CAB          0.0000     0.0000     0.0000 c3         1 HX7      -0.243300
      2 SBE          1.8130     0.0000     0.0000 s6         1 HX7       1.325900
      3 OAC          2.3130     0.0000     1.3310 o          1 HX7      -0.627800
      4 OAD          2.3130    -0.9110    -0.9690 o          1 HX7      -0.627800
      5 NAV          2.2270     1.4910    -0.5900 nu         1 HX7      -0.779500
      6 CBA          1.8620     1.8540    -1.8920 ca         1 HX7       0.072600
      7 CAK          2.5450     1.3240    -2.9780 ca         1 HX7      -0.083000
      8 CAM          2.1850     1.6820    -4.2620 ca         1 HX7      -0.188000
      9 CAJ          0.8130     2.7410    -2.0980 ca         1 HX7      -0.083000
     10 CAL          0.4540     3.0980    -3.3830 ca         1 HX7      -0.188000
     11 CBB          1.1410     2.5720    -4.4670 ca         1 HX7       0.153100
     12 OAW          0.7870     2.9260    -5.7320 os         1 HX7      -0.328900
     13 CAT         -0.2970     3.8470    -5.8690 c3         1 HX7       0.111400
     14 CBC         -0.5480     4.1220    -7.3530 c3         1 HX7       0.153100
     15 OAE         -0.9880     2.9220    -7.9910 oh         1 HX7      -0.584800
     16 CAU         -1.6230     5.2010    -7.4970 c3         1 HX7       0.158800
     17 NBD         -1.7890     5.5390    -8.9160 n3         1 HX7      -0.713600
     18 CAR         -0.5870     6.1980    -9.4450 c3         1 HX7       0.148800
     19 CAP         -0.2690     7.4330    -8.6000 c3         1 HX7      -0.130400
     20 CAO          0.9130     8.1830    -9.2170 c3         1 HX7      -0.080400
     21 CAA          1.2310     9.4180    -8.3720 c3         1 HX7      -0.092100
     22 CAS         -2.9800     6.3740    -9.1220 c3         1 HX7       0.163800
     23 CAQ         -3.2630     6.4990   -10.6210 c3         1 HX7      -0.036100
     24 CAX         -4.4850     7.3560   -10.8320 ca         1 HX7      -0.075300
     25 CAN         -4.3530     8.7240   -10.9780 ca         1 HX7      -0.114000
     26 CAZ         -5.4730     9.5100   -11.1720 ca         1 HX7       0.032400
     27 Cl1         -5.3080    11.2280   -11.3560 cl         1 HX7      -0.087400
     28 CAY         -6.7280     8.9250   -11.2200 ca         1 HX7       0.027400
     29 Cl2         -8.1370     9.9100   -11.4650 cl         1 HX7      -0.087400
     30 CAI         -6.8580     7.5570   -11.0740 ca         1 HX7      -0.111000
     31 CAH         -5.7370     6.7710   -10.8850 ca         1 HX7      -0.115000
     32 H1          -0.3610    -0.8020     0.6330 h1         1 HX7       0.098700
     33 H2          -0.3610     0.9490     0.3780 h1         1 HX7       0.098700
     34 H3          -0.3610    -0.1470    -1.0110 h1         1 HX7       0.098700
     35 H4           2.7720     2.1180    -0.0300 hn         1 HX7       0.464800
     36 H5           3.3610     0.6290    -2.8180 ha         1 HX7       0.148500
     37 H6           2.7190     1.2700    -5.1090 ha         1 HX7       0.144500
     38 H7           0.2770     3.1520    -1.2510 ha         1 HX7       0.148500
     39 H8          -0.3630     3.7920    -3.5440 ha         1 HX7       0.144500
     40 H9          -0.0480     4.7740    -5.3670 h1         1 HX7       0.044700
     41 H10         -1.1890     3.4240    -5.4240 h1         1 HX7       0.044700
     42 H11          0.3700     4.4620    -7.8170 h1         1 HX7       0.046700
     43 H12         -0.2600     2.5130    -8.4290 ho         1 HX7       0.410000
     44 H13         -2.5610     4.8300    -7.1020 h1         1 HX7       0.047700
     45 H14         -1.3230     6.0850    -6.9470 h1         1 HX7       0.047700
     46 H16          0.2480     5.5090    -9.4070 h1         1 HX7       0.058200
     47 H17         -0.7620     6.4970   -10.4720 h1         1 HX7       0.058200
     48 H18         -1.1350     8.0840    -8.5730 hc         1 HX7       0.045700
     49 H19         -0.0160     7.1260    -7.5930 hc         1 HX7       0.045700
     50 H20          1.7790     7.5320    -9.2440 hc         1 HX7       0.041700
     51 H21          0.6600     8.4900   -10.2240 hc         1 HX7       0.041700
     52 H22          2.0270     9.9830    -8.8430 hc         1 HX7       0.034367
     53 H23          0.3470    10.0390    -8.2920 hc         1 HX7       0.034367
     54 H24          1.5450     9.1080    -7.3830 hc         1 HX7       0.034367
     55 H25         -3.8310     5.9160    -8.6310 h1         1 HX7       0.040700
     56 H26         -2.8090     7.3580    -8.7040 h1         1 HX7       0.040700
     57 H27         -2.4120     6.9550   -11.1130 hc         1 HX7       0.061700
     58 H28         -3.4360     5.5140   -11.0390 hc         1 HX7       0.061700
     59 H29         -3.3690     9.1770   -10.9690 ha         1 HX7       0.149000
     60 H30         -7.8400     7.0990   -11.1140 ha         1 HX7       0.151000
     61 H31         -5.8400     5.6990   -10.7710 ha         1 HX7       0.145000
@<TRIPOS>BOND
     1    21    20 1
     2     1     2 1
     3    20    19 1
     4    19    18 1
     5    16    17 1
     6    16    14 1
     7    17    18 1
     8    17    22 1
     9     2     3 2
    10     2     4 2
    11     2     5 1
    12     7     8 ar
    13     7     6 ar
    14     8    11 ar
    15    13    14 1
    16    13    12 1
    17    22    23 1
    18    14    15 1
    19    23    24 1
    20     5     6 1
    21    31    24 ar
    22    31    30 ar
    23     6     9 ar
    24    24    25 ar
    25    30    28 ar
    26    11    12 1
    27    11    10 ar
    28    25    26 ar
    29    28    29 1
    30    28    26 ar
    31    26    27 1
    32     9    10 ar
    33     1    32 1
    34     1    33 1
    35     1    34 1
    36     5    35 1
    37     7    36 1
    38     8    37 1
    39     9    38 1
    40    10    39 1
    41    13    40 1
    42    13    41 1
    43    14    42 1
    44    15    43 1
    45    16    44 1
    46    16    45 1
    47    18    46 1
    48    18    47 1
    49    19    48 1
    50    19    49 1
    51    20    50 1
    52    20    51 1
    53    21    52 1
    54    21    53 1
    55    21    54 1
    56    22    55 1
    57    22    56 1
    58    23    57 1
    59    23    58 1
    60    25    59 1
    61    30    60 1
    62    31    61 1
@<TRIPOS>SUBSTRUCTURE
     1 HX7         1 TEMP              0 ****  ****    0 ROOT
