@<TRIPOS>MOLECULE
molecule
   24    25     1     0     0
SMALL
bcc


@<TRIPOS>ATOM
      1 C1           0.0000     0.0000     0.0000 ca         1 HX8      -0.094000
      2 C2           1.3830     0.0000     0.0000 ca         1 HX8      -0.163000
      3 C3           2.0780     0.0000     1.1960 ca         1 HX8      -0.094000
      4 C4           1.3910    -0.0010     2.3940 ca         1 HX8      -0.181500
      5 C5           0.0030    -0.0010     2.3980 ca         1 HX8       0.135100
      6 C6          -0.6910     0.0000     1.1960 ca         1 HX8      -0.181500
      7 O7          -0.6740    -0.0020     3.5750 os         1 HX8      -0.251200
      8 C8          -2.0330    -0.0100     3.5300 ca         1 HX8       0.091100
      9 C9          -2.7200    -1.2140     3.5100 ca         1 HX8      -0.124000
     10 C10         -4.1000    -1.2220     3.4710 ca         1 HX8      -0.145500
     11 C11         -4.8000    -0.0250     3.4490 ca         1 HX8       0.105100
     12 C12         -4.1140     1.1800     3.4680 ca         1 HX8      -0.145500
     13 C13         -2.7330     1.1880     3.5090 ca         1 HX8      -0.124000
     14 O14         -6.1590    -0.0330     3.4090 oh         1 HX8      -0.521100
     15 H1          -0.5410     0.0000    -0.9380 ha         1 HX8       0.133000
     16 H2           1.9230     0.0000    -0.9390 ha         1 HX8       0.131000
     17 H3           3.1610     0.0000     1.1920 ha         1 HX8       0.133000
     18 H4           1.9360    -0.0010     3.3300 ha         1 HX8       0.143500
     19 H5          -1.7740    -0.0000     1.1960 ha         1 HX8       0.143500
     20 H6          -2.1730    -2.1490     3.5280 ha         1 HX8       0.148500
     21 H7          -4.6370    -2.1630     3.4560 ha         1 HX8       0.146000
     22 H8          -4.6600     2.1150     3.4510 ha         1 HX8       0.146000
     23 H9          -2.1970     2.1290     3.5240 ha         1 HX8       0.148500
     24 H10         -6.5000    -0.0330     4.2880 ho         1 HX8       0.422000
@<TRIPOS>BOND
     1     1     2 ar
     2     1     6 ar
     3     2     3 ar
     4     6     5 ar
     5    14    11 1
     6     3     4 ar
     7    10    11 ar
     8    10     9 ar
     9    11    12 ar
    10     9     8 ar
    11     5     4 ar
    12     5     7 1
    13    12    13 ar
    14     8    13 ar
    15     8     7 1
    16     1    15 1
    17     2    16 1
    18     3    17 1
    19     4    18 1
    20     6    19 1
    21     9    20 1
    22    10    21 1
    23    12    22 1
    24    13    23 1
    25    14    24 1
@<TRIPOS>SUBSTRUCTURE
     1 HX8         1 TEMP              0 ****  ****    0 ROOT
