@<TRIPOS>MOLECULE
HXA
   55    54     1     0     0
SMALL
bcc


@<TRIPOS>ATOM
      1 C1         -0.4210    5.3210   -7.4380 c         1 HXA      0.910600
      2 O1          0.4130    6.1020   -6.8880 o         1 HXA     -0.859300
      3 O2         -1.3670    5.7340   -8.1700 o         1 HXA     -0.859300
      4 C2         -0.2910    3.8130   -7.1990 c3        1 HXA     -0.184400
      5 C3          1.1090    3.3390   -7.5260 c3        1 HXA     -0.049200
      6 C4          1.3300    1.9390   -7.0930 c2        1 HXA     -0.133200
      7 C5          2.3140    1.4980   -6.3050 c2        1 HXA     -0.204200
      8 C6          3.3890    2.3330   -5.7060 c3        1 HXA     -0.002000
      9 C7          3.0370    2.7500   -4.3250 c2        1 HXA     -0.191200
     10 C8          2.8200    3.9990   -3.9040 c2        1 HXA     -0.138200
     11 C9          2.8640    5.2310   -4.7270 c3        1 HXA     -0.046000
     12 C10         3.2320    6.4220   -3.9220 c2        1 HXA     -0.190200
     13 C11         2.8370    7.6710   -4.1930 c2        1 HXA     -0.152200
     14 C12         1.9510    8.0390   -5.3200 c3        1 HXA     -0.045000
     15 C13         1.7250    9.4970   -5.4450 c2        1 HXA     -0.174200
     16 C14         1.0810   10.0630   -6.4710 c2        1 HXA     -0.168200
     17 C15         0.5390    9.3140   -7.6290 c3        1 HXA     -0.046000
     18 C16        -0.4470   10.0950   -8.4120 c2        1 HXA     -0.175200
     19 C17        -1.0520    9.6390   -9.5150 c2        1 HXA     -0.165200
     20 C18        -0.8220    8.2900  -10.0800 c3        1 HXA     -0.058000
     21 C19        -1.4830    8.0740  -11.3870 c2        1 HXA     -0.158200
     22 C20        -1.5460    6.8860  -12.0000 c2        1 HXA     -0.183200
     23 C21        -0.9670    5.6420  -11.4430 c3        1 HXA     -0.078200
     24 C22        -1.3720    4.4180  -12.2230 c3        1 HXA     -0.078100
     25 H21        -0.5210    3.6130   -6.1220 hc        1 HXA      0.030200
     26 H22        -1.0440    3.2680   -7.8220 hc        1 HXA      0.030200
     27 H31         1.2730    3.4030   -8.6360 hc        1 HXA      0.053200
     28 H32         1.8380    4.0440   -7.0410 hc        1 HXA      0.053200
     29 H4          0.5810    1.2230   -7.4760 ha        1 HXA      0.102000
     30 H5          2.3660    0.4300   -6.0360 ha        1 HXA      0.096000
     31 H61         3.5990    3.2250   -6.3550 hc        1 HXA      0.040700
     32 H62         4.3390    1.7300   -5.6660 hc        1 HXA      0.040700
     33 H7          2.9380    1.9120   -3.6150 ha        1 HXA      0.100000
     34 H8          2.5530    4.1660   -2.8450 ha        1 HXA      0.105000
     35 H91         3.6100    5.1270   -5.5650 hc        1 HXA      0.091700
     36 H92         1.8560    5.3870   -5.2270 hc        1 HXA      0.091700
     37 H10         3.8860    6.2270   -3.0570 ha        1 HXA      0.096000
     38 H11         3.1750    8.4990   -3.5470 ha        1 HXA      0.096000
     39 H121        0.9520    7.5140   -5.2110 hc        1 HXA      0.103700
     40 H122        2.3640    7.6290   -6.2870 hc        1 HXA      0.103700
     41 H13         2.1090   10.1250   -4.6240 ha        1 HXA      0.094000
     42 H14         0.9340   11.1560   -6.4890 ha        1 HXA      0.094000
     43 H151        1.3960    9.0160   -8.3000 hc        1 HXA      0.097200
     44 H152        0.0790    8.3300   -7.2920 hc        1 HXA      0.097200
     45 H16        -0.6860   11.1020   -8.0330 ha        1 HXA      0.095000
     46 H17        -1.7860   10.2710  -10.0410 ha        1 HXA      0.096000
     47 H181       -1.1710    7.5080   -9.3280 hc        1 HXA      0.103700
     48 H182        0.2860    8.1120  -10.1930 hc        1 HXA      0.103700
     49 H19        -1.9430    8.9590  -11.8560 ha        1 HXA      0.094000
     50 H20        -2.0540    6.7900  -12.9720 ha        1 HXA      0.094000
     51 H211       -1.2790    5.5300  -10.3590 hc        1 HXA      0.083700
     52 H212        0.1540    5.7300  -11.4370 hc        1 HXA      0.083700
     53 H221       -2.4820    4.2970  -12.2160 hc        1 HXA      0.018700
     54 H222       -0.9170    3.5060  -11.7680 hc        1 HXA      0.018700
     55 H223       -1.0360    4.4880  -13.2860 hc        1 HXA      0.018700
@<TRIPOS>BOND
     1    1    2 1
     2    1    3 1
     3    1    4 1
     4    4    5 1
     5    4   25 1
     6    4   26 1
     7    5    6 1
     8    5   27 1
     9    5   28 1
    10    6    7 2
    11    6   29 1
    12    7    8 1
    13    7   30 1
    14    8    9 1
    15    8   31 1
    16    8   32 1
    17    9   10 2
    18    9   33 1
    19   10   11 1
    20   10   34 1
    21   11   12 1
    22   11   35 1
    23   11   36 1
    24   12   13 2
    25   12   37 1
    26   13   14 1
    27   13   38 1
    28   14   15 1
    29   14   39 1
    30   14   40 1
    31   15   16 2
    32   15   41 1
    33   16   17 1
    34   16   42 1
    35   17   18 1
    36   17   43 1
    37   17   44 1
    38   18   19 2
    39   18   45 1
    40   19   20 1
    41   19   46 1
    42   20   21 1
    43   20   47 1
    44   20   48 1
    45   21   22 2
    46   21   49 1
    47   22   23 1
    48   22   50 1
    49   23   24 1
    50   23   51 1
    51   23   52 1
    52   24   53 1
    53   24   54 1
    54   24   55 1
@<TRIPOS>SUBSTRUCTURE
     1 HXA         1 TEMP              0 ****  ****    0 ROOT
