@<TRIPOS>MOLECULE
molecule
   45    46     1     0     0
SMALL
bcc


@<TRIPOS>ATOM
      1 C1           1.5300     0.0000     0.0000 c3         1 HXB      -0.083100
      2 N1          -1.6400     3.2020    -0.0230 n          1 HXB      -0.338000
      3 O1           0.4510    -2.1170    -4.5100 os         1 HXB      -0.724800
      4 P1          -0.2670    -2.4500    -3.1080 p5         1 HXB       1.447800
      5 C2          -2.8260     2.8430    -0.5480 c          1 HXB       0.801500
      6 O2          -3.1000     1.6630    -0.6580 o          1 HXB      -0.622500
      7 P2           0.2230    -2.6060    -6.0270 p5         1 HXB       1.518800
      8 N3          -3.7120     3.7720    -0.9530 ns         1 HXB      -0.566500
      9 O3           1.5580    -2.3340    -6.8850 os         1 HXB      -0.736800
     10 P3           2.0910    -2.8450    -8.3150 p5         1 HXB       1.339900
     11 C4          -3.4240     5.0830    -0.8370 c          1 HXB       0.702700
     12 O4          -4.2250     5.9240    -1.2030 o          1 HXB      -0.725500
     13 C5          -2.1790     5.4750    -0.2860 cc         1 HXB      -0.346400
     14 O5           1.7620    -4.2780    -8.4820 o          1 HXB      -0.856500
     15 C6          -1.3080     4.5230     0.1120 cd         1 HXB      -0.069400
     16 O6           1.3860    -1.9930    -9.4860 o          1 HXB      -0.856500
     17 O7           3.6860    -2.6480    -8.3950 o          1 HXB      -0.856500
     18 O8          -1.0060    -1.7920    -6.6740 o          1 HXB      -0.873000
     19 O9          -0.0850    -4.0530    -6.0380 o          1 HXB      -0.873000
     20 C1'         -0.6980     2.1700     0.4150 c3         1 HXB       0.317500
     21 O10         -1.7310    -2.5370    -3.3120 o          1 HXB      -0.858500
     22 O11          0.2810    -3.8540    -2.5430 o          1 HXB      -0.858500
     23 C2'         -1.3030     1.3330     1.5710 c3         1 HXB      -0.158400
     24 C3'         -0.5250     0.0000     1.4490 c3         1 HXB       0.109100
     25 O3'          0.5620    -0.0320     2.3760 oh         1 HXB      -0.605800
     26 C4'          0.0000     0.0000     0.0000 c3         1 HXB       0.143800
     27 O4'         -0.4860     1.1990    -0.6330 os         1 HXB      -0.342600
     28 C5'         -0.5200    -1.2330    -0.7420 c3         1 HXB       0.244400
     29 O5'          0.0580    -1.2820    -2.0480 os         1 HXB      -0.587200
     30 C5M         -1.8310     6.9350    -0.1470 c3         1 HXB       0.005100
     31 H1           1.8910     0.7590     0.6830 hc         1 HXB       0.041367
     32 H1A          1.8910     0.2120    -0.9990 hc         1 HXB       0.041367
     33 H1B          1.8910    -0.9710     0.3160 hc         1 HXB       0.041367
     34 HN3         -4.5900     3.4870    -1.3410 hn         1 HXB       0.344500
     35 H6          -0.3520     4.8040     0.5350 h4         1 HXB       0.132000
     36 H1'          0.2440     2.6100     0.7190 h2         1 HXB       0.054700
     37 H2'         -1.1100     1.8040     2.5270 hc         1 HXB       0.054700
     38 H2'A        -2.3630     1.1740     1.4170 hc         1 HXB       0.054700
     39 H3'         -1.1910    -0.8400     1.6080 h1         1 HXB       0.052700
     40 HO3'         0.2800    -0.4440     3.1770 ho         1 HXB       0.374000
     41 H5'         -1.5990    -1.1760    -0.8260 h1         1 HXB       0.031700
     42 H5'A        -0.2480    -2.1270    -0.1930 h1         1 HXB       0.031700
     43 H5M         -2.6520     7.5390    -0.5160 hc         1 HXB       0.018700
     44 H5MA        -0.9380     7.1500    -0.7220 hc         1 HXB       0.018700
     45 H5MB        -1.6530     7.1660     0.8960 hc         1 HXB       0.018700
@<TRIPOS>BOND
     1     1    26 1
     2     1    31 1
     3     1    32 1
     4     1    33 1
     5    20     2 1
     6    15     2 1
     7     2     5 1
     8     7     3 1
     9     4     3 1
    10    21     4 1
    11     4    29 1
    12     4    22 1
    13     5     6 2
    14     5     8 1
    15    19     7 1
    16     9     7 1
    17     7    18 1
    18    11     8 1
    19     8    34 1
    20    10     9 1
    21    14    10 1
    22    16    10 1
    23    10    17 1
    24    13    11 1
    25    11    12 2
    26    15    13 2
    27    30    13 1
    28    15    35 1
    29    27    20 1
    30    23    20 1
    31    20    36 1
    32    24    23 1
    33    23    37 1
    34    23    38 1
    35    25    24 1
    36    26    24 1
    37    24    39 1
    38    25    40 1
    39    28    26 1
    40    26    27 1
    41    28    29 1
    42    28    41 1
    43    28    42 1
    44    30    43 1
    45    30    44 1
    46    30    45 1
@<TRIPOS>SUBSTRUCTURE
     1 HXB         1 TEMP              0 ****  ****    0 ROOT
