@<TRIPOS>MOLECULE
molecule
   38    37     1     0     0
SMALL
bcc


@<TRIPOS>ATOM
      1 C11          0.0000     0.0000     0.0000 c3         1 HXD      -0.084400
      2 C10          1.5300     0.0000     0.0000 c3         1 HXD      -0.082400
      3 C12         -0.5110     0.0000     1.4420 c3         1 HXD      -0.092100
      4 C9           2.0390     0.0000    -1.4430 c3         1 HXD      -0.082400
      5 C8           3.5690     0.0000    -1.4430 c3         1 HXD      -0.082400
      6 C7           4.0790     0.0020    -2.8860 c3         1 HXD      -0.082400
      7 C6           5.6100     0.0020    -2.8860 c3         1 HXD      -0.082400
      8 C5           6.1190     0.0020    -4.3280 c3         1 HXD      -0.082400
      9 C4           7.6490     0.0020    -4.3280 c3         1 HXD      -0.100400
     10 C3           8.1590     0.0020    -5.7710 c3         1 HXD       0.165100
     11 O8           7.7810     1.2240    -6.4090 oh         1 HXD      -0.608800
     12 C2           9.6840    -0.1230    -5.7720 c3         1 HXD      -0.194400
     13 C1          10.1760    -0.2460    -7.1920 c          1 HXD       0.898600
     14 O1          11.4900    -0.3690    -7.4380 o          1 HXD      -0.859300
     15 O            9.3880    -0.2360    -8.1070 o          1 HXD      -0.859300
     16 H111        -0.3610    -0.8840    -0.5110 hc         1 HXD       0.038700
     17 H112        -0.3610     0.8840    -0.5110 hc         1 HXD       0.038700
     18 H101         1.8910     0.8840     0.5110 hc         1 HXD       0.039700
     19 H102         1.8910    -0.8850     0.5100 hc         1 HXD       0.039700
     20 H121        -0.1500     0.8850     1.9530 hc         1 HXD       0.030033
     21 H122        -0.1500    -0.8840     1.9530 hc         1 HXD       0.030033
     22 H123        -1.5940    -0.0000     1.4420 hc         1 HXD       0.030033
     23 H91          1.6780     0.8850    -1.9530 hc         1 HXD       0.039700
     24 H92          1.6780    -0.8840    -1.9530 hc         1 HXD       0.039700
     25 H81          3.9300     0.8840    -0.9310 hc         1 HXD       0.038700
     26 H82          3.9300    -0.8850    -0.9330 hc         1 HXD       0.038700
     27 H71          3.7180    -0.8830    -3.3970 hc         1 HXD       0.039700
     28 H72          3.7180     0.8860    -3.3960 hc         1 HXD       0.039700
     29 H61          5.9710     0.8860    -2.3750 hc         1 HXD       0.036700
     30 H62          5.9710    -0.8830    -2.3750 hc         1 HXD       0.036700
     31 H51          5.7580     0.8860    -4.8380 hc         1 HXD       0.040200
     32 H52          5.7580    -0.8830    -4.8380 hc         1 HXD       0.040200
     33 H41          8.0100    -0.8830    -3.8180 hc         1 HXD       0.039200
     34 H42          8.0100     0.8860    -3.8180 hc         1 HXD       0.039200
     35 H3           7.7280    -0.8350    -6.3070 h1         1 HXD       0.037700
     36 HO8          7.2350     1.0330    -7.1540 ho         1 HXD       0.401000
     37 H21          9.9750    -1.0030    -5.2110 hc         1 HXD       0.037200
     38 H22         10.1190     0.7570    -5.3140 hc         1 HXD       0.037200
@<TRIPOS>BOND
     1     1     2 1
     2     1     3 1
     3     1    16 1
     4     1    17 1
     5     2     4 1
     6     2    18 1
     7     2    19 1
     8     3    20 1
     9     3    21 1
    10     3    22 1
    11     4     5 1
    12     4    23 1
    13     4    24 1
    14     5     6 1
    15     5    25 1
    16     5    26 1
    17     6     7 1
    18     6    27 1
    19     6    28 1
    20     7     8 1
    21     7    29 1
    22     7    30 1
    23     8     9 1
    24     8    31 1
    25     8    32 1
    26     9    10 1
    27     9    33 1
    28     9    34 1
    29    10    11 1
    30    10    12 1
    31    10    35 1
    32    11    36 1
    33    12    13 1
    34    12    37 1
    35    12    38 1
    36    13    14 1
    37    13    15 1
@<TRIPOS>SUBSTRUCTURE
     1 HXD         1 TEMP              0 ****  ****    0 ROOT
