@<TRIPOS>MOLECULE
HXD
   38    37     1     0     0
SMALL
bcc


@<TRIPOS>ATOM
      1 C11         0.0010   -0.0740    0.0550 c3        1 HXD     -0.080400
      2 C10         1.5120    0.0130    0.0160 c3        1 HXD     -0.079400
      3 C12        -0.5230   -0.0010    1.4660 c3        1 HXD     -0.091100
      4 C9          2.0330   -0.0620   -1.4030 c3        1 HXD     -0.079400
      5 C8          3.5430    0.0270   -1.4410 c3        1 HXD     -0.078400
      6 C7          4.0650   -0.0500   -2.8600 c3        1 HXD     -0.078400
      7 C6          5.5750    0.0400   -2.9000 c3        1 HXD     -0.077400
      8 C5          6.0950   -0.0350   -4.3190 c3        1 HXD     -0.077400
      9 C4          7.6050    0.0470   -4.3620 c3        1 HXD     -0.079400
     10 C3          8.1260    0.0340   -5.7990 c3        1 HXD      0.172100
     11 O8          7.6780    1.2350   -6.4140 oh        1 HXD     -0.658800
     12 C2          9.6420   -0.0870   -5.8270 c3        1 HXD     -0.233400
     13 C1         10.1740   -0.3060   -7.2510 c         1 HXD      0.908600
     14 O1         11.1170   -1.1290   -7.4140 o         1 HXD     -0.849300
     15 O           9.6530    0.3620   -8.1960 o         1 HXD     -0.849300
     16 H111       -0.4370    0.7610   -0.5530 hc        1 HXD      0.037700
     17 H112       -0.3300   -1.0360   -0.4200 hc        1 HXD      0.037700
     18 H101        1.8440    0.9750    0.4880 hc        1 HXD      0.037700
     19 H102        1.9520   -0.8220    0.6230 hc        1 HXD      0.037700
     20 H121       -0.1160   -0.8400    2.0810 hc        1 HXD      0.029367
     21 H122       -1.6370   -0.0670    1.4720 hc        1 HXD      0.029367
     22 H123       -0.2240    0.9610    1.9480 hc        1 HXD      0.029367
     23 H91         1.5920    0.7720   -2.0100 hc        1 HXD      0.038200
     24 H92         1.7010   -1.0240   -1.8750 hc        1 HXD      0.038200
     25 H81         3.8760    0.9900   -0.9710 hc        1 HXD      0.036200
     26 H82         3.9840   -0.8070   -0.8330 hc        1 HXD      0.036200
     27 H71         3.7330   -1.0130   -3.3310 hc        1 HXD      0.038200
     28 H72         3.6240    0.7830   -3.4690 hc        1 HXD      0.038200
     29 H61         5.9060    1.0030   -2.4290 hc        1 HXD      0.032200
     30 H62         6.0170   -0.7940   -2.2920 hc        1 HXD      0.032200
     31 H51         5.7560   -0.9930   -4.7940 hc        1 HXD      0.045200
     32 H52         5.6700    0.8060   -4.9290 hc        1 HXD      0.045200
     33 H41         8.0500   -0.8210   -3.8100 hc        1 HXD      0.033700
     34 H42         7.9470    0.9880   -3.8600 hc        1 HXD      0.033700
     35 H3          7.6740   -0.8380   -6.3540 h1        1 HXD      0.024700
     36 HO8         8.1710    1.3120   -7.2510 ho        1 HXD      0.455000
     37 H21        10.0990    0.8540   -5.4290 hc        1 HXD      0.033700
     38 H22         9.9650   -0.9390   -5.1800 hc        1 HXD      0.033700
@<TRIPOS>BOND
     1    1    2 1   
     2    1    3 1   
     3    1   16 1   
     4    1   17 1   
     5    2    4 1   
     6    2   18 1   
     7    2   19 1   
     8    3   20 1   
     9    3   21 1   
    10    3   22 1   
    11    4    5 1   
    12    4   23 1   
    13    4   24 1   
    14    5    6 1   
    15    5   25 1   
    16    5   26 1   
    17    6    7 1   
    18    6   27 1   
    19    6   28 1   
    20    7    8 1   
    21    7   29 1   
    22    7   30 1   
    23    8    9 1   
    24    8   31 1   
    25    8   32 1   
    26    9   10 1   
    27    9   33 1   
    28    9   34 1   
    29   10   11 1   
    30   10   12 1   
    31   10   35 1   
    32   11   36 1   
    33   12   13 1   
    34   12   37 1   
    35   12   38 1   
    36   13   14 1   
    37   13   15 1   
@<TRIPOS>SUBSTRUCTURE
     1 HXD         1 TEMP              0 ****  ****    0 ROOT
