@<TRIPOS>MOLECULE
HXG
   70    69     1     0     0
SMALL
bcc


@<TRIPOS>ATOM
      1 CAA          0.0000     0.0000     0.0000 c3         1 HXG       0.005900
      2 CAJ          1.5300     0.0000     0.0000 c3         1 HXG      -0.026400
      3 CAL          2.0390     0.0000     1.4430 c3         1 HXG      -0.030400
      4 CAN          3.5690     0.0000     1.4430 c3         1 HXG      -0.021400
      5 CAQ          4.0790    -0.0000     2.8850 c3         1 HXG      -0.069400
      6 CAZ          5.5860    -0.0010     2.8860 c          1 HXG       0.691100
      7 OAF          6.1900    -0.0010     1.8390 o          1 HXG      -0.594000
      8 OAV          6.2570    -0.0000     4.0480 os         1 HXG      -0.400900
      9 CAT          7.7070    -0.0010     3.9730 c3         1 HXG       0.200400
     10 CBB          8.2920    -0.0010     5.3870 c3         1 HXG       0.149100
     11 OAY          7.9420    -1.2410     6.0550 os         1 HXG      -0.390900
     12 CBA          6.7940    -1.2570     6.7500 c          1 HXG       0.690100
     13 OAG          6.1030    -0.2650     6.7980 o          1 HXG      -0.591000
     14 CAR          6.3650    -2.5090     7.4700 c3         1 HXG      -0.070400
     15 CAO          5.0320    -2.2590     8.1780 c3         1 HXG      -0.020400
     16 CAM          4.5970    -3.5310     8.9090 c3         1 HXG      -0.031400
     17 CAK          3.2630    -3.2810     9.6160 c3         1 HXG      -0.026400
     18 CAB          2.8270    -4.5520    10.3480 c3         1 HXG       0.006900
     19 CAU          9.8150     0.1250     5.3090 c3         1 HXG       0.317400
     20 OAX         10.3510     0.2420     6.6280 os         1 HXG      -0.508200
     21 PBD         11.9260     0.3920     6.9250 p5         1 HXG       0.921800
     22 OAI         12.4630     1.5460     6.1680 o          1 HXG      -0.635500
     23 OAH         12.6890    -0.9510     6.4680 o          1 HXG      -0.635500
     24 OAW         12.1560     0.6300     8.5000 os         1 HXG      -0.526200
     25 CAP         13.4390     0.9040     9.0670 c3         1 HXG       0.290400
     26 CAS         13.3010     1.0760    10.5810 c3         1 HXG      -0.040200
     27 NBC         12.9090    -0.2040    11.1860 n4         1 HXG       0.064200
     28 CAD         13.8650    -1.2460    10.7890 c3         1 HXG       0.010100
     29 CAE         12.9060    -0.0740    12.6490 c3         1 HXG       0.010100
     30 CAC         11.5640    -0.5720    10.7240 c3         1 HXG       0.010100
     31 H1          -0.3610     0.8800     0.5180 hc         1 HXG      -0.000967
     32 H2          -0.3610    -0.8890     0.5030 hc         1 HXG      -0.000967
     33 H3          -0.3610     0.0080    -1.0210 hc         1 HXG      -0.000967
     34 H4           1.8910     0.8850    -0.5110 hc         1 HXG       0.014200
     35 H5           1.8910    -0.8850    -0.5110 hc         1 HXG       0.014200
     36 H6           1.6780     0.8850     1.9540 hc         1 HXG       0.012200
     37 H7           1.6780    -0.8850     1.9540 hc         1 HXG       0.012200
     38 H8           3.9300    -0.8840     0.9320 hc         1 HXG       0.029200
     39 H9           3.9300     0.8850     0.9330 hc         1 HXG       0.029200
     40 H10          3.7180    -0.8850     3.3960 hc         1 HXG       0.035700
     41 H11          3.7180     0.8840     3.3960 hc         1 HXG       0.035700
     42 H12          8.0410     0.8830     3.4430 h1         1 HXG       0.021200
     43 H13          8.0400    -0.8860     3.4440 h1         1 HXG       0.021200
     44 H14          7.8890     0.8360     5.9440 h1         1 HXG       0.048700
     45 H15          6.2490    -3.3150     6.7550 hc         1 HXG       0.031700
     46 H16          7.1170    -2.7810     8.2010 hc         1 HXG       0.031700
     47 H17          4.2800    -1.9880     7.4470 hc         1 HXG       0.027700
     48 H18          5.1480    -1.4540     8.8930 hc         1 HXG       0.027700
     49 H19          4.4800    -4.3370     8.1940 hc         1 HXG       0.011700
     50 H20          5.3480    -3.8030     9.6400 hc         1 HXG       0.011700
     51 H21          2.5120    -3.0100     8.8850 hc         1 HXG       0.013700
     52 H22          3.3790    -2.4750    10.3310 hc         1 HXG       0.013700
     53 H23          1.8800    -4.3770    10.8430 hc         1 HXG      -0.000967
     54 H24          2.7180    -5.3600     9.6350 hc         1 HXG      -0.000967
     55 H25          3.5750    -4.8200    11.0850 hc         1 HXG      -0.000967
     56 H26         10.0760     1.0050     4.7330 h1         1 HXG       0.001700
     57 H27         10.2260    -0.7560     4.8290 h1         1 HXG       0.001700
     58 H29         14.1100     0.0790     8.8570 h1         1 HXG       0.020200
     59 H30         13.8380     1.8130     8.6350 h1         1 HXG       0.020200
     60 H31         12.5440     1.8220    10.7920 hx         1 HXG       0.065200
     61 H32         14.2490     1.3960    10.9960 hx         1 HXG       0.065200
     62 H33         14.8690    -0.8400    10.8030 hx         1 HXG       0.070922
     63 H34         13.8020    -2.0770    11.4820 hx         1 HXG       0.070922
     64 H35         13.6280    -1.5910     9.7900 hx         1 HXG       0.070922
     65 H36         12.2110     0.7040    12.9420 hx         1 HXG       0.070922
     66 H37         12.6050    -1.0140    13.0950 hx         1 HXG       0.070922
     67 H38         13.9010     0.1850    12.9910 hx         1 HXG       0.070922
     68 H39         11.0760    -1.1770    11.4790 hx         1 HXG       0.070922
     69 H40         10.9830     0.3260    10.5520 hx         1 HXG       0.070922
     70 H41         11.6400    -1.1360     9.8030 hx         1 HXG       0.070922
@<TRIPOS>BOND
     1     1     2 1   
     2     1    31 1   
     3     1    32 1   
     4     1    33 1   
     5     2     3 1   
     6     2    34 1   
     7     2    35 1   
     8     3     4 1   
     9     3    36 1   
    10     3    37 1   
    11     4     5 1   
    12     4    38 1   
    13     4    39 1   
    14     5     6 1   
    15     5    40 1   
    16     5    41 1   
    17     6     7 2   
    18     6     8 1   
    19     8     9 1   
    20     9    10 1   
    21     9    42 1   
    22     9    43 1   
    23    10    11 1   
    24    10    19 1   
    25    10    44 1   
    26    11    12 1   
    27    12    13 2   
    28    12    14 1   
    29    14    15 1   
    30    14    45 1   
    31    14    46 1   
    32    15    16 1   
    33    15    47 1   
    34    15    48 1   
    35    16    17 1   
    36    16    49 1   
    37    16    50 1   
    38    17    18 1   
    39    17    51 1   
    40    17    52 1   
    41    18    53 1   
    42    18    54 1   
    43    18    55 1   
    44    19    20 1   
    45    19    56 1   
    46    19    57 1   
    47    20    21 1   
    48    21    22 1   
    49    21    23 1   
    50    21    24 1   
    51    24    25 1   
    52    25    26 1   
    53    25    58 1   
    54    25    59 1   
    55    26    27 1   
    56    26    60 1   
    57    26    61 1   
    58    27    28 1   
    59    27    29 1   
    60    27    30 1   
    61    28    62 1   
    62    28    63 1   
    63    28    64 1   
    64    29    65 1   
    65    29    66 1   
    66    29    67 1   
    67    30    68 1   
    68    30    69 1   
    69    30    70 1   
@<TRIPOS>SUBSTRUCTURE
     1 HXG         1 TEMP              0 ****  ****    0 ROOT
