@<TRIPOS>MOLECULE
HXH
   45    47     1     0     0
SMALL
bcc


@<TRIPOS>ATOM
      1 C1           0.0000     0.0000     0.0000 c3         1 HXH       0.146700
      2 N1          -0.4870     0.2490    -1.3630 n7         1 HXH      -0.570200
      3 C2           1.5300     0.0000     0.0000 c3         1 HXH       0.189100
      4 O2           2.0100    -1.1700    -0.6660 oh         1 HXH      -0.572800
      5 C3           2.0150     0.0000     1.4550 c3         1 HXH       0.161100
      6 O3           3.4340    -0.1680     1.4880 oh         1 HXH      -0.583800
      7 C4           1.6400     1.3400     2.0910 c3         1 HXH       0.217300
      8 O4           1.8620     1.2750     3.5010 oh         1 HXH      -0.580800
      9 C5           0.1950     1.6510     1.8280 c2         1 HXH      -0.155200
     10 C6          -0.5160     1.0710     0.9170 c2         1 HXH      -0.183200
     11 C10         -1.8350    -0.3050    -1.5500 c3         1 HXH       0.206100
     12 C11         -2.2990    -0.0310    -2.9580 ca         1 HXH      -0.138300
     13 C12         -2.0350    -0.9440    -3.9630 ca         1 HXH      -0.047000
     14 C13         -2.4590    -0.6940    -5.2530 ca         1 HXH      -0.171000
     15 C14         -3.1530     0.4730    -5.5400 ca         1 HXH       0.147100
     16 C15         -3.4170     1.3870    -4.5300 ca         1 HXH      -0.171000
     17 C16         -2.9950     1.1310    -3.2400 ca         1 HXH      -0.047000
     18 O20         -3.5720     0.7210    -6.8090 os         1 HXH      -0.223200
     19 C21         -3.2990    -0.2070    -7.7630 ca         1 HXH       0.103100
     20 C22         -4.2020    -1.2310    -8.0150 ca         1 HXH      -0.117000
     21 C23         -3.9230    -2.1730    -8.9860 ca         1 HXH      -0.088000
     22 C24         -2.7450    -2.0980    -9.7060 ca         1 HXH      -0.105000
     23 C25         -1.8440    -1.0800    -9.4570 ca         1 HXH      -0.088000
     24 C26         -2.1200    -0.1310    -8.4920 ca         1 HXH      -0.117000
     25 H1          -0.3560    -0.9640     0.3420 h1         1 HXH       0.054700
     26 HN1         -0.5040     1.2350    -1.5360 hn         1 HXH       0.257800
     27 H2           1.8930     0.8880    -0.5040 h1         1 HXH       0.013700
     28 HO2          2.6320    -0.9210    -1.3300 ho         1 HXH       0.397000
     29 H3           1.5350    -0.8060     1.9980 h1         1 HXH       0.025700
     30 HO3          3.6510    -0.9060     2.0340 ho         1 HXH       0.400000
     31 H4           2.2560     2.1220     1.6620 h1         1 HXH       0.017700
     32 HO4          2.2270     2.0910     3.8000 ho         1 HXH       0.392000
     33 H5          -0.2810     2.4080     2.4400 ha         1 HXH       0.103000
     34 H6          -1.5500     1.3770     0.8080 ha         1 HXH       0.104000
     35 H10         -2.5170     0.1580    -0.8480 h1         1 HXH       0.010700
     36 H10A        -1.8120    -1.3750    -1.3790 h1         1 HXH       0.010700
     37 H12         -1.4930    -1.8540    -3.7380 ha         1 HXH       0.106000
     38 H13         -2.2510    -1.4090    -6.0400 ha         1 HXH       0.121000
     39 H15         -3.9600     2.2970    -4.7510 ha         1 HXH       0.121000
     40 H16         -3.2010     1.8440    -2.4510 ha         1 HXH       0.106000
     41 H22         -5.1250    -1.2910    -7.4510 ha         1 HXH       0.117000
     42 H23         -4.6270    -2.9720    -9.1820 ha         1 HXH       0.105000
     43 H24         -2.5270    -2.8390   -10.4650 ha         1 HXH       0.105000
     44 H25         -0.9230    -1.0220   -10.0240 ha         1 HXH       0.105000
     45 H26         -1.4130     0.6670    -8.2980 ha         1 HXH       0.117000
@<TRIPOS>BOND
     1     1     2 1   
     2     1     3 1   
     3     1    10 1   
     4     1    25 1   
     5     2    11 1   
     6     2    26 1   
     7     3     4 1   
     8     3     5 1   
     9     3    27 1   
    10     4    28 1   
    11     5     6 1   
    12     5     7 1   
    13     5    29 1   
    14     6    30 1   
    15     7     8 1   
    16     7     9 1   
    17     7    31 1   
    18     8    32 1   
    19     9    10 2   
    20     9    33 1   
    21    10    34 1   
    22    11    12 1   
    23    11    35 1   
    24    11    36 1   
    25    12    13 ar  
    26    12    17 ar  
    27    13    14 ar  
    28    13    37 1   
    29    14    15 ar  
    30    14    38 1   
    31    15    16 ar  
    32    15    18 1   
    33    16    17 ar  
    34    16    39 1   
    35    17    40 1   
    36    18    19 1   
    37    19    20 ar  
    38    19    24 ar  
    39    20    21 ar  
    40    20    41 1   
    41    21    22 ar  
    42    21    42 1   
    43    22    23 ar  
    44    22    43 1   
    45    23    24 ar  
    46    23    44 1   
    47    24    45 1   
@<TRIPOS>SUBSTRUCTURE
     1 HXH         1 TEMP              0 ****  ****    0 ROOT
