@<TRIPOS>MOLECULE
HXJ
   73    74     1     0     0
SMALL
bcc


@<TRIPOS>ATOM
      1 CAA          0.0000     0.0000     0.0000 c3         1 HXJ      -0.112000
      2 CAL          1.5310     0.0000     0.0000 c3         1 HXJ      -0.106000
      3 CAO          2.0400     0.0000     1.4420 c3         1 HXJ      -0.112000
      4 CAQ          3.5710     0.0010     1.4430 c3         1 HXJ      -0.137000
      5 CAN          4.0810     0.0000     2.8850 DU         1 HXJ      -0.002000
      6 CAJ          5.5880     0.0000     2.8850 c2         1 HXJ      -0.061000
      7 CAK          6.2430     0.9290     3.5350 c2         1 HXJ      -0.202000
      8 CBA          7.7500     0.9300     3.5350 DU         1 HXJ       0.177000
      9 OAH          8.2260    -0.1020     2.6690 oh         1 HXJ      -0.292000
     10 CBB          8.2590     2.2850     3.0410 c3         1 HXJ      -0.111000
     11 NAW          7.7710     3.3440     3.9300 ns         1 HXJ       0.046000
     12 CAZ          8.0970     3.3300     5.2370 c2         1 HXJ       0.212000
     13 OAF          8.7940     2.4400     5.6790 o          1 HXJ      -0.420000
     14 CAT          7.5940     4.4180     6.1510 c3         1 HXJ      -0.127000
     15 CAR          8.1050     4.1670     7.5720 c3         1 HXJ      -0.095000
     16 CAP          7.5940     5.2720     8.4990 c3         1 HXJ      -0.110000
     17 CAM          8.1050     5.0210     9.9190 c3         1 HXJ      -0.106000
     18 CAB          7.5950     6.1260    10.8470 c3         1 HXJ      -0.113000
     19 CAV          9.7900     2.2860     3.0420 c3         1 HXJ       0.125000
     20 OAY         10.2660     3.5070     2.4730 os         1 HXJ      -0.680000
     21 PBD         11.8310     3.8490     2.3130 p5         1 HXJ       1.378000
     22 OAI         12.5030     2.8150     1.2760 o          1 HXJ      -0.630500
     23 OAG         12.4980     3.7310     3.6290 o          1 HXJ      -0.630500
     24 OAX         11.9990     5.3510     1.7590 os         1 HXJ      -0.689000
     25 CAS         13.2690     5.9880     1.6090 c3         1 HXJ       0.139000
     26 CAU         13.0690     7.4030     1.0610 c3         1 HXJ      -0.278000
     27 NBC         12.3750     8.2210     2.0640 n4         1 HXJ       0.698000
     28 CAD         13.1120     8.1710     3.3330 c3         1 HXJ      -0.265333
     29 CAE         12.3010     9.6110     1.5940 c3         1 HXJ      -0.265333
     30 CAC         11.0160     7.7010     2.2660 c3         1 HXJ      -0.265333
     31 H1          -0.3610     0.8920     0.4970 hc         1 HXJ       0.038000
     32 H2          -0.3610    -0.8770     0.5240 hc         1 HXJ       0.038000
     33 H3          -0.3610    -0.0150    -1.0210 hc         1 HXJ       0.038000
     34 H4           1.8920     0.8850    -0.5110 hc         1 HXJ       0.052500
     35 H5           1.8920    -0.8850    -0.5110 hc         1 HXJ       0.052500
     36 H6           1.6800    -0.8850     1.9520 hc         1 HXJ       0.050500
     37 H7           1.6780     0.8840     1.9530 hc         1 HXJ       0.050500
     38 H8           3.9330    -0.8830     0.9310 hc         1 HXJ       0.064000
     39 H9           3.9310     0.8860     0.9330 hc         1 HXJ       0.064000
     40 H10          3.7190    -0.8850     3.3950 ha         1 HXJ       0.054000
     41 H11          3.7190     0.8840     3.3960 ha         1 HXJ       0.054000
     42 H12          4.9760    -0.3510     3.7070 DU         1 HXJ       0.017000
     43 H13          6.8550     0.2760     4.1450 DU         1 HXJ       0.019000
     44 H14          8.1110     0.7530     4.5410 ha         1 HXJ       0.075000
     45 H15          8.5450    -0.8230     3.1860 ho         1 HXJ       0.194000
     46 H16          7.8980     2.4630     2.0360 h1         1 HXJ       0.090000
     47 H17          7.1960     4.0770     3.5660 hn         1 HXJ       0.073000
     48 H18          6.5110     4.4170     6.1520 hc         1 HXJ       0.058000
     49 H19          7.9540     5.3780     5.8020 hc         1 HXJ       0.058000
     50 H20          7.7440     3.2070     7.9210 hc         1 HXJ       0.072000
     51 H21          9.1880     4.1670     7.5720 hc         1 HXJ       0.072000
     52 H22          7.9550     6.2320     8.1490 hc         1 HXJ       0.046500
     53 H23          6.5110     5.2720     8.4990 hc         1 HXJ       0.046500
     54 H24          9.1880     5.0220     9.9190 hc         1 HXJ       0.054500
     55 H25          7.7440     4.0610    10.2690 hc         1 HXJ       0.054500
     56 H26          6.5740     5.9100    11.1380 hc         1 HXJ       0.037667
     57 H27          7.6290     7.0770    10.3290 hc         1 HXJ       0.037667
     58 H28          8.2200     6.1730    11.7300 hc         1 HXJ       0.037667
     59 H29         10.1510     1.4490     2.4570 h1         1 HXJ       0.061000
     60 H30         10.1500     2.1970     4.0600 h1         1 HXJ       0.061000
     61 H32         13.7630     6.0400     2.5720 h1         1 HXJ       0.060000
     62 H33         13.8810     5.4170     0.9200 h1         1 HXJ       0.060000
     63 H34         14.0330     7.8440     0.8390 hx         1 HXJ       0.105500
     64 H35         12.4740     7.3590     0.1560 hx         1 HXJ       0.105500
     65 H36         14.1770     8.1950     3.1330 hx         1 HXJ       0.109556
     66 H37         12.8630     7.2580     3.8600 hx         1 HXJ       0.109556
     67 H38         12.8400     9.0250     3.9420 hx         1 HXJ       0.109556
     68 H39         11.7910     9.6430     0.6380 hx         1 HXJ       0.109556
     69 H40         11.7540    10.2080     2.3140 hx         1 HXJ       0.109556
     70 H41         13.3020    10.0090     1.4820 hx         1 HXJ       0.109556
     71 H42         10.3650     8.5050     2.5860 hx         1 HXJ       0.109556
     72 H43         11.0340     6.9280     3.0250 hx         1 HXJ       0.109556
     73 H44         10.6460     7.2850     1.3370 hx         1 HXJ       0.109556
@<TRIPOS>BOND
     1     1     2 1   
     2     1    31 1   
     3     1    32 1   
     4     1    33 1   
     5     2     3 1   
     6     2    34 1   
     7     2    35 1   
     8     3     4 1   
     9     3    36 1   
    10     3    37 1   
    11     4     5 1   
    12     4    38 1   
    13     4    39 1   
    14     5     6 1   
    15     5    40 1   
    16     5    41 1   
    17     5    42 1   
    18     6     7 1   
    19     6    42 1   
    20     7     8 1   
    21     7    43 1   
    22     8     9 1   
    23     8    10 1   
    24     8    43 1   
    25     8    44 1   
    26     9    45 1   
    27    10    11 1   
    28    10    19 1   
    29    10    46 1   
    30    11    12 1   
    31    11    47 1   
    32    12    13 1   
    33    12    14 1   
    34    14    15 1   
    35    14    48 1   
    36    14    49 1   
    37    15    16 1   
    38    15    50 1   
    39    15    51 1   
    40    16    17 1   
    41    16    52 1   
    42    16    53 1   
    43    17    18 1   
    44    17    54 1   
    45    17    55 1   
    46    18    56 1   
    47    18    57 1   
    48    18    58 1   
    49    19    20 1   
    50    19    59 1   
    51    19    60 1   
    52    20    21 1   
    53    21    22 1   
    54    21    23 1   
    55    21    24 1   
    56    24    25 1   
    57    25    26 1   
    58    25    61 1   
    59    25    62 1   
    60    26    27 1   
    61    26    63 1   
    62    26    64 1   
    63    27    28 1   
    64    27    29 1   
    65    27    30 1   
    66    28    65 1   
    67    28    66 1   
    68    28    67 1   
    69    29    68 1   
    70    29    69 1   
    71    29    70 1   
    72    30    71 1   
    73    30    72 1   
    74    30    73 1   
@<TRIPOS>SUBSTRUCTURE
     1 HXJ         1 TEMP              0 ****  ****    0 ROOT
