@<TRIPOS>MOLECULE
molecule
   73    72     1     0     0
SMALL
bcc


@<TRIPOS>ATOM
      1 CAA          0.0000     0.0000     0.0000 c3         1 HXJ      -0.092100
      2 CAL          1.5310     0.0000     0.0000 c3         1 HXJ      -0.084400
      3 CAO          2.0400     0.0000     1.4420 c3         1 HXJ      -0.083400
      4 CAQ          3.5710     0.0010     1.4430 c3         1 HXJ      -0.077400
      5 CAN          4.0810     0.0000     2.8850 c3         1 HXJ      -0.049200
      6 CAJ          5.5880     0.0000     2.8850 c2         1 HXJ      -0.163200
      7 CAK          6.2430     0.9290     3.5350 c2         1 HXJ      -0.203200
      8 CBA          7.7500     0.9300     3.5350 c3         1 HXJ       0.160300
      9 OAH          8.2260    -0.1020     2.6690 oh         1 HXJ      -0.602800
     10 CBB          8.2590     2.2850     3.0410 c3         1 HXJ       0.114700
     11 NAW          7.7710     3.3440     3.9300 ns         1 HXJ      -0.570900
     12 CAZ          8.0970     3.3300     5.2370 c          1 HXJ       0.657100
     13 OAF          8.7940     2.4400     5.6790 o          1 HXJ      -0.609100
     14 CAT          7.5940     4.4180     6.1510 c3         1 HXJ      -0.157400
     15 CAR          8.1050     4.1670     7.5720 c3         1 HXJ      -0.067400
     16 CAP          7.5940     5.2720     8.4990 c3         1 HXJ      -0.085400
     17 CAM          8.1050     5.0210     9.9190 c3         1 HXJ      -0.082400
     18 CAB          7.5950     6.1260    10.8470 c3         1 HXJ      -0.092100
     19 CAV          9.7900     2.2860     3.0420 c3         1 HXJ       0.203400
     20 OAY         10.2660     3.5070     2.4730 os         1 HXJ      -0.618200
     21 PBD         11.8310     3.8490     2.3130 p5         1 HXJ       1.324800
     22 OAI         12.5030     2.8150     1.2760 o          1 HXJ      -0.792000
     23 OAG         12.4980     3.7310     3.6290 o          1 HXJ      -0.792000
     24 OAX         11.9990     5.3510     1.7590 os         1 HXJ      -0.614200
     25 CAS         13.2690     5.9880     1.6090 c3         1 HXJ       0.202400
     26 CAU         13.0690     7.4030     1.0610 c3         1 HXJ       0.092800
     27 NBC         12.3750     8.2210     2.0640 n4         1 HXJ      -0.567800
     28 CAD         13.1120     8.1710     3.3330 c3         1 HXJ       0.097767
     29 CAE         12.3010     9.6110     1.5940 c3         1 HXJ       0.097767
     30 CAC         11.0160     7.7010     2.2660 c3         1 HXJ       0.097767
     31 H1          -0.3610    -0.0000    -1.0210 hc         1 HXJ       0.031367
     32 H2          -0.3610     0.8850     0.5100 hc         1 HXJ       0.031367
     33 H3          -0.3610    -0.8840     0.5110 hc         1 HXJ       0.031367
     34 H4           1.8920     0.8850    -0.5110 hc         1 HXJ       0.040700
     35 H5           1.8920    -0.8850    -0.5110 hc         1 HXJ       0.040700
     36 H6           1.6800    -0.8850     1.9520 hc         1 HXJ       0.039200
     37 H7           1.6780     0.8840     1.9530 hc         1 HXJ       0.039200
     38 H8           3.9310     0.8860     0.9330 hc         1 HXJ       0.045200
     39 H9           3.9330    -0.8830     0.9310 hc         1 HXJ       0.045200
     40 H10          3.7190     0.8840     3.3960 hc         1 HXJ       0.042200
     41 H11          3.7190    -0.8850     3.3950 hc         1 HXJ       0.042200
     42 H12          6.1300    -0.7680     2.3460 ha         1 HXJ       0.145000
     43 H13          5.7010     1.6980     4.0730 ha         1 HXJ       0.122000
     44 H14          8.1110     0.7530     4.5410 h1         1 HXJ       0.079700
     45 H15          8.5970    -0.7990     3.1850 ho         1 HXJ       0.408000
     46 H16          7.8980     2.4630     2.0360 h1         1 HXJ       0.075700
     47 H17          7.2150     4.0900     3.5610 hn         1 HXJ       0.307500
     48 H18          6.5110     4.4170     6.1520 hc         1 HXJ       0.050200
     49 H19          7.9540     5.3780     5.8020 hc         1 HXJ       0.050200
     50 H20          9.1880     4.1670     7.5720 hc         1 HXJ       0.062700
     51 H21          7.7440     3.2070     7.9210 hc         1 HXJ       0.062700
     52 H22          7.9550     6.2320     8.1490 hc         1 HXJ       0.034200
     53 H23          6.5110     5.2720     8.4990 hc         1 HXJ       0.034200
     54 H24          9.1880     5.0220     9.9190 hc         1 HXJ       0.045200
     55 H25          7.7440     4.0610    10.2690 hc         1 HXJ       0.045200
     56 H26          6.5120     6.1250    10.8470 hc         1 HXJ       0.030367
     57 H27          7.9550     7.0860    10.4970 hc         1 HXJ       0.030367
     58 H28          7.9560     5.9490    11.8520 hc         1 HXJ       0.030367
     59 H29         10.1500     2.1970     4.0600 h1         1 HXJ       0.066200
     60 H30         10.1510     1.4490     2.4570 h1         1 HXJ       0.066200
     61 H32         13.8810     5.4170     0.9210 h1         1 HXJ       0.070700
     62 H33         13.7630     6.0400     2.5720 h1         1 HXJ       0.070700
     63 H34         12.4740     7.3590     0.1560 hx         1 HXJ       0.093700
     64 H35         14.0330     7.8440     0.8390 hx         1 HXJ       0.093700
     65 H36         12.8450     9.0280     3.9400 hx         1 HXJ       0.094922
     66 H37         14.1770     8.1890     3.1330 hx         1 HXJ       0.094922
     67 H38         12.8590     7.2610     3.8620 hx         1 HXJ       0.094922
     68 H39         13.3020    10.0100     1.4860 hx         1 HXJ       0.094922
     69 H40         11.7500    10.2070     2.3120 hx         1 HXJ       0.094922
     70 H41         11.7950     9.6420     0.6360 hx         1 HXJ       0.094922
     71 H42         10.6460     7.2860     1.3360 hx         1 HXJ       0.094922
     72 H43         11.0350     6.9270     3.0250 hx         1 HXJ       0.094922
     73 H44         10.3650     8.5050     2.5870 hx         1 HXJ       0.094922
@<TRIPOS>BOND
     1    29    27 1
     2    30    27 1
     3    27    28 1
     4    27    26 1
     5    26    25 1
     6     9     8 1
     7     5     6 1
     8     5     4 1
     9     7     6 2
    10     7     8 1
    11     3     4 1
    12     3     2 1
    13    25    24 1
    14     8    10 1
    15     2     1 1
    16    24    21 1
    17    10    19 1
    18    10    11 1
    19    20    19 1
    20    20    21 1
    21    21    23 1
    22    21    22 1
    23    11    12 1
    24    12    13 2
    25    12    14 1
    26    15    14 1
    27    15    16 1
    28    17    18 1
    29    17    16 1
    30     1    31 1
    31     1    32 1
    32     1    33 1
    33     2    34 1
    34     2    35 1
    35     3    36 1
    36     3    37 1
    37     4    38 1
    38     4    39 1
    39     5    40 1
    40     5    41 1
    41     6    42 1
    42     7    43 1
    43     8    44 1
    44     9    45 1
    45    10    46 1
    46    11    47 1
    47    14    48 1
    48    14    49 1
    49    15    50 1
    50    15    51 1
    51    16    52 1
    52    16    53 1
    53    17    54 1
    54    17    55 1
    55    18    56 1
    56    18    57 1
    57    18    58 1
    58    19    59 1
    59    19    60 1
    60    25    61 1
    61    25    62 1
    62    26    63 1
    63    26    64 1
    64    28    65 1
    65    28    66 1
    66    28    67 1
    67    29    68 1
    68    29    69 1
    69    29    70 1
    70    30    71 1
    71    30    72 1
    72    30    73 1
@<TRIPOS>SUBSTRUCTURE
     1 HXJ         1 TEMP              0 ****  ****    0 ROOT
