@<TRIPOS>MOLECULE
molecule
   54    55     1     0     0
SMALL
bcc


@<TRIPOS>ATOM
      1 CAA          0.0000     0.0000     0.0000 c3         1 HXK      -0.092100
      2 OAB         13.3190     4.9170    12.0340 o          1 HXK      -0.816300
      3 OAC         12.5260     4.0910    10.1310 o          1 HXK      -0.816300
      4 CAE         13.5460    -0.1070    12.5880 ca         1 HXK      -0.135000
      5 CAF         13.8870     0.9590    13.4070 ca         1 HXK      -0.175000
      6 CAG         13.0270     0.1170    11.3300 ca         1 HXK      -0.180000
      7 CAH         13.7080     2.2550    12.9760 ca         1 HXK      -0.077000
      8 CAI         12.2190     0.0020     6.2230 ca         1 HXK      -0.183000
      9 CAJ         10.3190     0.0010     4.7540 ca         1 HXK      -0.259000
     10 CAK         10.0040    -0.0000     7.1350 ca         1 HXK      -0.158000
     11 CAL          1.5300     0.0000     0.0000 c3         1 HXK      -0.084400
     12 CAM          2.0400     0.0000     1.4430 c3         1 HXK      -0.081400
     13 CAN          3.5700     0.0000     1.4430 c3         1 HXK      -0.082400
     14 CAO          4.0800    -0.0010     2.8850 c3         1 HXK      -0.080400
     15 CAP          5.6100     0.0010     2.8850 c3         1 HXK      -0.080400
     16 CAQ          6.1200    -0.0010     4.3280 c3         1 HXK      -0.083400
     17 CAR          7.6490     0.0010     4.3280 c3         1 HXK       0.139400
     18 OAT          8.1270    -0.0000     5.6760 os         1 HXK      -0.330900
     19 SAU         12.1770     1.7080     9.2690 ss         1 HXK      -0.077000
     20 CAV         12.9860     3.8820    11.2370 c          1 HXK       0.880200
     21 CAW         11.6920     0.0030     4.9390 ca         1 HXK       0.135100
     22 CAX         11.3740     0.0020     7.3170 ca         1 HXK       0.006700
     23 CAY          9.4740     0.0000     5.8530 ca         1 HXK       0.150100
     24 CAZ         12.8380     1.4180    10.8750 ca         1 HXK       0.033900
     25 CBA         13.1790     2.5000    11.7050 ca         1 HXK      -0.096600
     26 HAA         -0.3610     0.8850     0.5110 hc         1 HXK       0.031033
     27 HAAA        -0.3610    -0.0000    -1.0210 hc         1 HXK       0.031033
     28 HAAB        -0.3610    -0.8840     0.5110 hc         1 HXK       0.031033
     29 HOAD        12.7740     0.8890     3.6600 ho         1 HXK       0.419000
     30 HAE         13.6910    -1.1220    12.9370 ha         1 HXK       0.102000
     31 HAF         14.2960     0.7710    14.3930 ha         1 HXK       0.106000
     32 HAG         12.7630    -0.7210    10.6970 ha         1 HXK       0.113000
     33 HAH         13.9770     3.0830    13.6210 ha         1 HXK       0.156000
     34 HAI         13.2930     0.0040     6.3680 ha         1 HXK       0.146000
     35 HAJ          9.9060     0.0020     3.7520 ha         1 HXK       0.134000
     36 HAK          9.3440    -0.0010     7.9940 ha         1 HXK       0.151000
     37 HAL          1.8910     0.8850    -0.5110 hc         1 HXK       0.039200
     38 HALA         1.8910    -0.8850    -0.5110 hc         1 HXK       0.039200
     39 HAM          1.6790    -0.8850     1.9530 hc         1 HXK       0.041700
     40 HAMA         1.6790     0.8850     1.9530 hc         1 HXK       0.041700
     41 HAN          3.9310    -0.8840     0.9320 hc         1 HXK       0.040700
     42 HANA         3.9310     0.8850     0.9320 hc         1 HXK       0.040700
     43 HAO          3.7180     0.8830     3.3960 hc         1 HXK       0.043700
     44 HAOA         3.7200    -0.8860     3.3950 hc         1 HXK       0.043700
     45 HAP          5.9700     0.8860     2.3750 hc         1 HXK       0.041700
     46 HAPA         5.9710    -0.8830     2.3730 hc         1 HXK       0.041700
     47 HAQ          5.7580     0.8830     4.8400 hc         1 HXK       0.055200
     48 HAQA         5.7600    -0.8860     4.8370 hc         1 HXK       0.055200
     49 HAR          8.0110    -0.8830     3.8160 h1         1 HXK       0.033700
     50 HARA         8.0100     0.8860     3.8180 h1         1 HXK       0.033700
     51 HAS         12.9040    -0.5080     8.7060 h1         1 HXK       0.059700
     52 HASA        11.2690    -0.5100     9.3810 h1         1 HXK       0.059700
     53 CAS         11.9490     0.0010     8.7100 c3         1 HXK      -0.057000
     54 OAD         12.5230     0.0030     3.8640 oh         1 HXK      -0.532100
@<TRIPOS>BOND
     1     1    11 1
     2     1    26 1
     3     1    27 1
     4     1    28 1
     5    20     2 1
     6     3    20 1
     7    54    21 1
     8    54    29 1
     9     6     4 ar
    10     5     4 ar
    11     4    30 1
    12     7     5 ar
    13     5    31 1
    14    24     6 ar
    15     6    32 1
    16    25     7 ar
    17     7    33 1
    18     8    22 ar
    19     8    21 ar
    20     8    34 1
    21    21     9 ar
    22     9    23 ar
    23     9    35 1
    24    22    10 ar
    25    10    23 ar
    26    10    36 1
    27    12    11 1
    28    11    37 1
    29    11    38 1
    30    13    12 1
    31    12    39 1
    32    12    40 1
    33    14    13 1
    34    13    41 1
    35    13    42 1
    36    14    15 1
    37    14    43 1
    38    14    44 1
    39    16    15 1
    40    15    45 1
    41    15    46 1
    42    17    16 1
    43    16    47 1
    44    16    48 1
    45    18    17 1
    46    17    49 1
    47    17    50 1
    48    19    53 1
    49    53    22 1
    50    53    51 1
    51    53    52 1
    52    23    18 1
    53    19    24 1
    54    20    25 1
    55    25    24 ar
@<TRIPOS>SUBSTRUCTURE
     1 HXK         1 TEMP              0 ****  ****    0 ROOT
