@<TRIPOS>MOLECULE
HXL
   48    51     1     0     0
SMALL
bcc


@<TRIPOS>ATOM
      1 N1           0.0000     0.0000     0.0000 n2         1 HXL      -0.418100
      2 N2           1.9530     0.0050    -1.1850 nz         1 HXL       0.139400
      3 C1           1.3340     0.0000     0.0000 ce         1 HXL       0.204800
      4 C2           2.1670     0.0000     1.2880 ca         1 HXL      -0.250900
      5 C3           2.3590     1.3080     2.0630 ca         1 HXL       0.056000
      6 C4           3.1840     1.3310     3.3420 ca         1 HXL       0.073400
      7 N3           3.4480     2.3490     4.1220 nc         1 HXL      -0.502100
      8 C5           4.2320     1.9280     5.1700 cd         1 HXL       0.255400
      9 N4           4.4980     0.5700     5.0810 na         1 HXL       0.355700
     10 C6           3.8390     0.1160     3.9060 ca         1 HXL      -0.319200
     11 C7           3.6760    -1.2310     3.1640 ca         1 HXL       0.012000
     12 C8           2.8400    -1.2840     1.8560 ca         1 HXL      -0.086000
     13 C9           4.7420     2.9080     6.3120 ca         1 HXL      -0.125900
     14 C10          4.3290     4.3350     6.2100 ca         1 HXL      -0.038500
     15 C11          4.7470     5.3550     7.2230 ca         1 HXL      -0.114000
     16 C12          5.6300     4.9880     8.4330 ca         1 HXL       0.151100
     17 C13          6.0610     3.5010     8.5400 ca         1 HXL      -0.114000
     18 C14          5.6170     2.4570     7.4800 ca         1 HXL      -0.038500
     19 O1           6.0660     5.9870     9.4610 os         1 HXL      -0.286200
     20 C15          5.7170     7.3830     9.8630 ca         1 HXL       0.231100
     21 C16          4.4150     8.0900     9.5260 ca         1 HXL      -0.107000
     22 C17          4.1240     9.4900     9.9610 ca         1 HXL      -0.017000
     23 C18          5.0870    10.3130    10.7650 ca         1 HXL      -0.287900
     24 C19          6.4450     9.6350    11.1400 ca         1 HXL      -0.017000
     25 C20          6.7570     8.1750    10.6890 ca         1 HXL      -0.107000
     26 C21          4.6790    11.7500    11.1660 ce         1 HXL       0.191800
     27 N5           3.3860    12.1340    11.1310 n2         1 HXL      -0.499100
     28 N6           5.5880    12.6340    11.5590 nz         1 HXL       0.221400
     29 HN1         -0.5010     0.0020    -0.8660 hn         1 HXL       0.331400
     30 HN21         1.6240     0.7780    -1.7290 hn         1 HXL       0.222133
     31 HN22         2.9400     0.0910    -1.0460 hn         1 HXL       0.222133
     32 H3           1.9040     2.2210     1.6990 ha         1 HXL       0.110000
     33 HN4          5.0440     0.0210     5.7160 hn         1 HXL       0.142700
     34 H7           4.1410    -2.1290     3.5520 ha         1 HXL       0.119000
     35 H8           2.7230    -2.2260     1.3340 ha         1 HXL       0.109000
     36 H10          3.7080     4.6450     5.3780 ha         1 HXL       0.118500
     37 H11          4.4190     6.3810     7.1030 ha         1 HXL       0.115000
     38 H13          6.6820     3.1850     9.3700 ha         1 HXL       0.115000
     39 H14          5.9240     1.4220     7.5660 ha         1 HXL       0.118500
     40 H16          3.6700     7.5590     8.9470 ha         1 HXL       0.133000
     41 H17          3.1730     9.9300     9.6840 ha         1 HXL       0.099500
     42 H19          7.1770    10.1860    11.7190 ha         1 HXL       0.099500
     43 H20          7.7020     7.7160    10.9550 ha         1 HXL       0.133000
     44 HN5          2.6780    11.4880    10.8410 hn         1 HXL       0.375400
     45 HN61         6.3540    12.6350    10.9150 hn         1 HXL       0.216800
     46 HN62         5.9190    12.3900    12.4710 hn         1 HXL       0.216800
     47 H23          1.7530    -0.8470    -1.6690 hn         1 HXL       0.222133
     48 H63          5.1760    13.5460    11.5860 hn         1 HXL       0.216800
@<TRIPOS>BOND
     1     1     3 2   
     2     1    29 1   
     3     2     3 1   
     4     2    30 1   
     5     2    31 1   
     6     2    47 1   
     7     3     4 1   
     8     4     5 ar  
     9     4    12 ar  
    10     5     6 ar  
    11     5    32 1   
    12     6     7 1   
    13     6    10 ar  
    14     7     8 2   
    15     8     9 1   
    16     8    13 1   
    17     9    10 1   
    18     9    33 1   
    19    10    11 ar  
    20    11    12 ar  
    21    11    34 1   
    22    12    35 1   
    23    13    14 ar  
    24    13    18 ar  
    25    14    15 ar  
    26    14    36 1   
    27    15    16 ar  
    28    15    37 1   
    29    16    17 ar  
    30    16    19 1   
    31    17    18 ar  
    32    17    38 1   
    33    18    39 1   
    34    19    20 1   
    35    20    21 ar  
    36    20    25 ar  
    37    21    22 ar  
    38    21    40 1   
    39    22    23 ar  
    40    22    41 1   
    41    23    24 ar  
    42    23    26 1   
    43    24    25 ar  
    44    24    42 1   
    45    25    43 1   
    46    26    27 2   
    47    26    28 1   
    48    27    44 1   
    49    28    45 1   
    50    28    46 1   
    51    28    48 1   
@<TRIPOS>SUBSTRUCTURE
     1 HXL         1 TEMP              0 ****  ****    0 ROOT
