@<TRIPOS>MOLECULE
molecule
   48    51     1     0     0
SMALL
bcc


@<TRIPOS>ATOM
      1 N1           0.0000     0.0000     0.0000 n2         1 HXL      -0.698100
      2 N2           1.9530     0.0050    -1.1850 nz         1 HXL      -0.732600
      3 C1           1.3340     0.0000     0.0000 ce         1 HXL       0.504800
      4 C2           2.1670     0.0000     1.2880 ca         1 HXL      -0.306900
      5 C3           2.3590     1.3080     2.0630 ca         1 HXL      -0.010000
      6 C4           3.1840     1.3310     3.3420 ca         1 HXL       0.104400
      7 N3           3.4480     2.3490     4.1220 nc         1 HXL      -0.587100
      8 C5           4.2320     1.9280     5.1700 cd         1 HXL       0.484400
      9 N4           4.4980     0.5700     5.0810 na         1 HXL      -0.215300
     10 C6           3.8390     0.1160     3.9060 ca         1 HXL      -0.115200
     11 C7           3.6760    -1.2310     3.1640 ca         1 HXL      -0.058000
     12 C8           2.8400    -1.2840     1.8560 ca         1 HXL      -0.114000
     13 C9           4.7420     2.9080     6.3120 ca         1 HXL      -0.138900
     14 C10          4.3290     4.3350     6.2100 ca         1 HXL      -0.065000
     15 C11          4.7470     5.3550     7.2230 ca         1 HXL      -0.143000
     16 C12          5.6300     4.9880     8.4330 ca         1 HXL       0.152100
     17 C13          6.0610     3.5010     8.5400 ca         1 HXL      -0.143000
     18 C14          5.6170     2.4570     7.4800 ca         1 HXL      -0.065000
     19 O1           6.0660     5.9870     9.4610 os         1 HXL      -0.323200
     20 C15          5.7170     7.3830     9.8630 ca         1 HXL       0.217100
     21 C16          4.4150     8.0900     9.5260 ca         1 HXL      -0.144500
     22 C17          4.1240     9.4900     9.9610 ca         1 HXL      -0.043000
     23 C18          5.0870    10.3130    10.7650 ca         1 HXL      -0.253900
     24 C19          6.4450     9.6350    11.1400 ca         1 HXL      -0.043000
     25 C20          6.7570     8.1750    10.6890 ca         1 HXL      -0.144500
     26 C21          4.6790    11.7500    11.1660 ce         1 HXL       0.515800
     27 N5           3.3860    12.1340    11.1310 n2         1 HXL      -0.689100
     28 N6           5.5880    12.6340    11.5590 nz         1 HXL      -0.776600
     29 HN1         -0.5010    -0.0020     0.8660 hn         1 HXL       0.481400
     30 HN21         2.9010     0.3010    -1.0650 hn         1 HXL       0.472800
     31 HN22         1.4830     0.6360    -1.8040 hn         1 HXL       0.472800
     32 H3           1.9050     2.2220     1.6990 ha         1 HXL       0.159000
     33 HN4          5.0440     0.0210     5.7160 hn         1 HXL       0.331700
     34 H7           4.1410    -2.1290     3.5520 ha         1 HXL       0.167000
     35 H8           2.7240    -2.2250     1.3330 ha         1 HXL       0.153000
     36 H10          3.7080     4.6450     5.3780 ha         1 HXL       0.162500
     37 H11          4.4190     6.3810     7.1030 ha         1 HXL       0.157000
     38 H13          6.6820     3.1850     9.3700 ha         1 HXL       0.157000
     39 H14          5.9240     1.4220     7.5660 ha         1 HXL       0.162500
     40 H16          3.6700     7.5590     8.9470 ha         1 HXL       0.174500
     41 H17          3.1730     9.9300     9.6840 ha         1 HXL       0.153500
     42 H19          7.1770    10.1860    11.7190 ha         1 HXL       0.153500
     43 H20          7.7020     7.7160    10.9550 ha         1 HXL       0.174500
     44 HN5          3.1320    13.0650    11.3950 hn         1 HXL       0.429400
     45 HN61         5.8850    12.4160    12.4900 hn         1 HXL       0.466467
     46 HN62         6.3750    12.6020    10.9420 hn         1 HXL       0.466467
     47 H23          1.9350    -0.9160    -1.5740 hn         1 HXL       0.472800
     48 H63          5.1910    13.5530    11.5390 hn         1 HXL       0.466467
@<TRIPOS>BOND
     1     1     3 2
     2     1    29 1
     3     2     3 1
     4     2    30 1
     5     2    31 1
     6     3     4 1
     7     4     5 ar
     8     4    12 ar
     9     5     6 ar
    10     5    32 1
    11     6     7 1
    12     6    10 ar
    13     7     8 2
    14     8     9 1
    15     8    13 1
    16     9    10 1
    17     9    33 1
    18    10    11 ar
    19    11    12 ar
    20    11    34 1
    21    12    35 1
    22    13    14 ar
    23    13    18 ar
    24    14    15 ar
    25    14    36 1
    26    15    16 ar
    27    15    37 1
    28    16    17 ar
    29    16    19 1
    30    17    18 ar
    31    17    38 1
    32    18    39 1
    33    19    20 1
    34    20    21 ar
    35    20    25 ar
    36    21    22 ar
    37    21    40 1
    38    22    23 ar
    39    22    41 1
    40    23    24 ar
    41    23    26 1
    42    24    25 ar
    43    24    42 1
    44    25    43 1
    45    26    27 2
    46    26    28 1
    47    27    44 1
    48    28    45 1
    49    28    46 1
    50    47     2 1
    51    48    28 1
@<TRIPOS>SUBSTRUCTURE
     1 HXL         1 TEMP              0 ****  ****    0 ROOT
