@<TRIPOS>MOLECULE
HXM
   58    59     1     0     0
SMALL
bcc


@<TRIPOS>ATOM
      1 C10          0.0000     0.0000     0.0000 c3         1 HXM       0.088500
      2 C12          1.5290     0.0000     0.0000 c3         1 HXM      -0.021600
      3 C13         -1.7630    -0.7230     1.4940 c3         1 HXM       0.147800
      4 C14         -1.5040    -2.2290     1.4140 c3         1 HXM       0.186100
      5 C17         -3.6190    -5.2110     1.8740 ca         1 HXM       0.157100
      6 C18         -4.8910    -4.6740     2.0140 ca         1 HXM      -0.171500
      7 C19         -5.9750    -5.5080     2.2100 ca         1 HXM      -0.057000
      8 C22         -3.4360    -6.5850     1.9260 ca         1 HXM      -0.171500
      9 C01          0.3910     5.6890     2.6600 ca         1 HXM      -0.086000
     10 C02          0.4320     5.7590     4.0420 ca         1 HXM      -0.044600
     11 C03          0.5850     4.6030     4.7880 ca         1 HXM      -0.036600
     12 C04          0.6950     3.3800     4.1540 ca         1 HXM      -0.088000
     13 C05          0.6540     3.3110     2.7730 ca         1 HXM      -0.075300
     14 C06          0.5020     4.4650     2.0270 ca         1 HXM      -0.093000
     15 C08         -0.6170     1.3700     1.8980 c3         1 HXM       0.132800
     16 N09         -0.4900     0.0000     1.3850 n3         1 HXM      -0.528600
     17 C11         -0.5110     1.2490    -0.7210 c3         1 HXM      -0.021600
     18 C15         -2.8140    -2.9860     1.6380 c3         1 HXM       0.165400
     19 O16         -2.5530    -4.3900     1.6800 os         1 HXM      -0.308900
     20 C20         -5.7910    -6.8830     2.2670 ca         1 HXM      -0.002400
     21 C21         -4.5190    -7.4200     2.1210 ca         1 HXM      -0.057000
     22 S24         -7.1310    -8.4370     3.9420 s6         1 HXM       0.949900
     23 C25         -7.4580    -7.0480     5.0630 c3         1 HXM       0.013700
     24 O26         -8.3040    -9.2210     3.7670 o          1 HXM      -0.584300
     25 O27         -5.8840    -9.0420     4.2500 o          1 HXM      -0.584300
     26 O28         -0.9790    -2.5550     0.1260 oh         1 HXM      -0.585800
     27 Cl2          0.2940     7.2960     4.8370 cl         1 HXM      -0.005400
     28 H1          -0.3610    -0.8850    -0.5110 h1         1 HXM       0.080700
     29 H2           1.8910     0.9830    -0.2760 hc         1 HXM       0.010867
     30 H3           1.8910    -0.7310    -0.7130 hc         1 HXM       0.010867
     31 H4           1.8910    -0.2530     0.9900 hc         1 HXM       0.010867
     32 H5          -2.4170    -0.4270     0.6820 h1         1 HXM       0.018200
     33 H6          -2.2330    -0.4870     2.4410 h1         1 HXM       0.018200
     34 H7          -0.7890    -2.5120     2.1770 h1         1 HXM       0.023700
     35 H8          -5.0340    -3.6010     1.9710 ha         1 HXM       0.120000
     36 H9          -6.9680    -5.0890     2.3190 ha         1 HXM       0.117000
     37 H10         -2.4430    -7.0030     1.8140 ha         1 HXM       0.120000
     38 H12          0.2720     6.5920     2.0750 ha         1 HXM       0.117000
     39 H13          0.8140     2.4760     4.7380 ha         1 HXM       0.122000
     40 H14          0.4700     4.4100     0.9460 ha         1 HXM       0.111000
     41 H17         -1.1310     1.3520     2.8510 h1         1 HXM       0.020200
     42 H18         -1.1820     1.9680     1.1940 h1         1 HXM       0.020200
     43 H20         -0.3590     1.1370    -1.7880 hc         1 HXM       0.010867
     44 H21         -1.5670     1.3770    -0.5180 hc         1 HXM       0.010867
     45 H22          0.0320     2.1170    -0.3690 hc         1 HXM       0.010867
     46 H23         -3.4990    -2.7700     0.8270 h1         1 HXM       0.011700
     47 H24         -3.2560    -2.6730     2.5770 h1         1 HXM       0.011700
     48 H25         -4.3750    -8.4930     2.1640 ha         1 HXM       0.117000
     49 H26         -6.5260    -6.5480     5.3000 h1         1 HXM       0.062700
     50 H27         -7.9100    -7.4190     5.9750 h1         1 HXM       0.062700
     51 H28         -8.1320    -6.3480     4.5850 h1         1 HXM       0.062700
     52 H29         -0.5140    -3.3750     0.1740 ho         1 HXM       0.403000
     53 N23         -6.8890    -7.7270     2.4650 nu         1 HXM      -0.428500
     54 C07          0.7760     1.9780     2.0810 c3         1 HXM       0.005900
     55 Cl1          0.6370     4.6910     6.5210 cl         1 HXM      -0.006400
     56 H11         -7.5040    -7.9360     1.7040 hn         1 HXM       0.349800
     57 H15          1.3840     1.3130     2.6830 hc         1 HXM       0.038200
     58 H16          1.2400     2.1150     1.1130 hc         1 HXM       0.038200
@<TRIPOS>BOND
     1     1     2 1   
     2     1    16 1   
     3     1    17 1   
     4     1    28 1   
     5     2    29 1   
     6     2    30 1   
     7     2    31 1   
     8     3     4 1   
     9     3    16 1   
    10     3    32 1   
    11     3    33 1   
    12     4    18 1   
    13     4    26 1   
    14     4    34 1   
    15     5     6 ar  
    16     5     8 ar  
    17     5    19 1   
    18     6     7 ar  
    19     6    35 1   
    20     7    20 ar  
    21     7    36 1   
    22     8    21 ar  
    23     8    37 1   
    24     9    10 ar  
    25     9    14 ar  
    26     9    38 1   
    27    10    11 ar  
    28    10    27 1   
    29    11    12 ar  
    30    11    55 1   
    31    12    13 ar  
    32    12    39 1   
    33    13    14 ar  
    34    13    54 1   
    35    14    40 1   
    36    15    16 1   
    37    15    41 1   
    38    15    42 1   
    39    15    54 1   
    40    17    43 1   
    41    17    44 1   
    42    17    45 1   
    43    18    19 1   
    44    18    46 1   
    45    18    47 1   
    46    20    21 ar  
    47    20    53 1   
    48    21    48 1   
    49    22    23 1   
    50    22    24 2   
    51    22    25 2   
    52    22    53 1   
    53    23    49 1   
    54    23    50 1   
    55    23    51 1   
    56    26    52 1   
    57    53    56 1   
    58    54    57 1   
    59    54    58 1   
@<TRIPOS>SUBSTRUCTURE
     1 HXM         1 TEMP              0 ****  ****    0 ROOT
