@<TRIPOS>MOLECULE
HXP
   34    36     1     0     0
SMALL
bcc


@<TRIPOS>ATOM
      1 C1          0.3950   -0.5320    0.2010 ca        1 HXP     -0.058000
      2 C2          1.7710   -0.3290    0.2100 ca        1 HXP     -0.211000
      3 C3          2.3720    0.2540    1.3350 ca        1 HXP      0.123600
      4 O3          3.7330    0.4790    1.4130 oh        1 HXP     -0.509600
      5 C4          1.6130    0.6440    2.4440 ca        1 HXP     -0.218000
      6 C4A         0.2280    0.4250    2.4010 ca        1 HXP      0.139100
      7 O10        -0.4490    0.8420    3.5390 os        1 HXP     -0.246200
      8 C5A        -1.8400    0.8160    3.4710 ca        1 HXP      0.139100
      9 C5         -2.4820    1.4240    4.5610 ca        1 HXP     -0.218000
     10 C6         -3.8800    1.4290    4.5760 ca        1 HXP      0.123600
     11 O6         -4.5950    2.0020    5.6090 oh        1 HXP     -0.509600
     12 C7         -4.6250    0.8490    3.5360 ca        1 HXP     -0.211000
     13 C8         -3.9600    0.2550    2.4700 ca        1 HXP     -0.058000
     14 C8A        -2.5560    0.2300    2.4230 ca        1 HXP     -0.133300
     15 C9         -1.8720   -0.4110    1.2600 c3        1 HXP      0.023900
     16 C9A        -0.3990   -0.1710    1.2950 ca        1 HXP     -0.133300
     17 C1'        -2.2000   -1.9100    1.1950 c3        1 HXP     -0.050400
     18 C2'        -2.6500   -2.3400   -0.1820 c3        1 HXP     -0.201400
     19 C3'        -3.8830   -1.5430   -0.6460 c         1 HXP      0.902600
     20 O1'        -4.9370   -1.6010    0.0540 o         1 HXP     -0.848800
     21 O2'        -3.7780   -0.8550   -1.7000 o         1 HXP     -0.848800
     22 H1         -0.0920   -0.9860   -0.6800 ha        1 HXP      0.193000
     23 H2          2.3810   -0.6190   -0.6550 ha        1 HXP      0.137000
     24 HO3         4.1220    0.1780    0.5800 ho        1 HXP      0.409000
     25 H4          2.0840    1.1070    3.3190 ha        1 HXP      0.144500
     26 H5         -1.8930    1.8750    5.3680 ha        1 HXP      0.144500
     27 HO6        -3.9570    2.3600    6.2410 ho        1 HXP      0.409000
     28 H7         -5.7220    0.8680    3.5750 ha        1 HXP      0.137000
     29 H8         -4.5280   -0.2250    1.6380 ha        1 HXP      0.193000
     30 H9         -2.2840    0.0680    0.3160 hc        1 HXP      0.115700
     31 H1'1       -1.3040   -2.5050    1.5100 hc        1 HXP      0.035200
     32 H1'2       -3.0310   -2.1350    1.9160 hc        1 HXP      0.035200
     33 H2'1       -1.8250   -2.2050   -0.9260 hc        1 HXP      0.024700
     34 H2'2       -2.9220   -3.4250   -0.1570 hc        1 HXP      0.024700
@<TRIPOS>BOND
     1    1    2 ar  
     2    1   16 ar  
     3    1   22 1   
     4    2    3 ar  
     5    2   23 1   
     6    3    4 1   
     7    3    5 ar  
     8    4   24 1   
     9    5    6 ar  
    10    5   25 1   
    11    6    7 1   
    12    6   16 ar  
    13    7    8 1   
    14    8    9 ar  
    15    8   14 ar  
    16    9   10 ar  
    17    9   26 1   
    18   10   11 1   
    19   10   12 ar  
    20   11   27 1   
    21   12   13 ar  
    22   12   28 1   
    23   13   14 ar  
    24   13   29 1   
    25   14   15 1   
    26   15   16 1   
    27   15   17 1   
    28   15   30 1   
    29   17   18 1   
    30   17   31 1   
    31   17   32 1   
    32   18   19 1   
    33   18   33 1   
    34   18   34 1   
    35   19   20 1   
    36   19   21 1   
@<TRIPOS>SUBSTRUCTURE
     1 HXP         1 TEMP              0 ****  ****    0 ROOT
