@<TRIPOS>MOLECULE
molecule
   34    36     1     0     0
SMALL
bcc


@<TRIPOS>ATOM
      1 C1           0.0000     0.0000     0.0000 ca         1 HXP      -0.077500
      2 C2           1.3810     0.0000     0.0000 ca         1 HXP      -0.175000
      3 C3           2.0660     0.0000     1.2070 ca         1 HXP       0.111600
      4 O3           3.4250     0.0100     1.2150 oh         1 HXP      -0.530600
      5 C4           1.3670    -0.0130     2.4000 ca         1 HXP      -0.179500
      6 C4A         -0.0280    -0.0240     2.4030 ca         1 HXP       0.130600
      7 O10         -0.6540    -0.0590     3.5910 os         1 HXP      -0.208200
      8 C5A         -1.8730     0.5100     3.5990 ca         1 HXP       0.130600
      9 C5          -2.3380     1.0440     4.8020 ca         1 HXP      -0.179500
     10 C6          -3.5980     1.6050     4.8780 ca         1 HXP       0.111600
     11 O6          -4.0420     2.1210     6.0550 oh         1 HXP      -0.530600
     12 C7          -4.4130     1.6420     3.7560 ca         1 HXP      -0.175000
     13 C8          -3.9530     1.1210     2.5620 ca         1 HXP      -0.077500
     14 C8A         -2.6900     0.5640     2.4840 ca         1 HXP      -0.117800
     15 C9          -2.2060     0.0190     1.1660 c3         1 HXP       0.015900
     16 C9A         -0.6980    -0.0070     1.1930 ca         1 HXP      -0.117800
     17 C1'         -2.7410    -1.4010     0.9670 c3         1 HXP      -0.051400
     18 C2'         -2.2470    -1.9500    -0.3720 c3         1 HXP      -0.191400
     19 C3'         -2.7750    -3.3470    -0.5690 c          1 HXP       0.892600
     20 O1'         -3.4760    -3.8510     0.2760 o          1 HXP      -0.852300
     21 O2'         -2.4670    -4.0300    -1.6830 o          1 HXP      -0.852300
     22 H1          -0.5390     0.0000    -0.9400 ha         1 HXP       0.147500
     23 H2           1.9220     0.1210    -0.9300 ha         1 HXP       0.135500
     24 HO3          3.7460    -0.8760     1.2390 ho         1 HXP       0.416000
     25 H4           1.9070    -0.0130     3.3390 ha         1 HXP       0.143000
     26 H5          -1.7060     1.0180     5.6810 ha         1 HXP       0.143000
     27 HO6         -4.4600     1.4420     6.5580 ho         1 HXP       0.416000
     28 H7          -5.3540     2.1770     3.7860 ha         1 HXP       0.135500
     29 H8          -4.5840     1.1520     1.6820 ha         1 HXP       0.147500
     30 H9          -2.5440     0.6590     0.3610 hc         1 HXP       0.060700
     31 H1'1        -3.8240    -1.3820     0.9720 hc         1 HXP       0.057700
     32 H1'2        -2.3880    -2.0360     1.7710 hc         1 HXP       0.057700
     33 H2'1        -2.5990    -1.3140    -1.1750 hc         1 HXP       0.030200
     34 H2'2        -1.1640    -1.9700    -0.3760 hc         1 HXP       0.030200
@<TRIPOS>BOND
     1     1     2 ar
     2     1    16 ar
     3     1    22 1
     4     2     3 ar
     5     2    23 1
     6     3     4 1
     7     3     5 ar
     8     4    24 1
     9     5     6 ar
    10     5    25 1
    11     6     7 1
    12     6    16 ar
    13     7     8 1
    14     8     9 ar
    15     8    14 ar
    16     9    10 ar
    17     9    26 1
    18    10    11 1
    19    10    12 ar
    20    11    27 1
    21    12    13 ar
    22    12    28 1
    23    13    14 ar
    24    13    29 1
    25    14    15 1
    26    15    16 1
    27    15    17 1
    28    15    30 1
    29    17    18 1
    30    17    31 1
    31    17    32 1
    32    18    19 1
    33    18    33 1
    34    18    34 1
    35    19    20 1
    36    19    21 1
@<TRIPOS>SUBSTRUCTURE
     1 HXP         1 TEMP              0 ****  ****    0 ROOT
