@<TRIPOS>MOLECULE
HXS
   42    43     1     0     0
SMALL
bcc


@<TRIPOS>ATOM
      1 C1          0.0780    0.1520   -0.0600 ca        1 HXS     -0.183500
      2 C2          1.4780    0.1080   -0.0140 ca        1 HXS      0.120100
      3 C3          2.1510    0.0310    1.2160 ca        1 HXS     -0.183500
      4 C4          1.4100   -0.0010    2.3920 ca        1 HXS     -0.092500
      5 C5          0.0080    0.0430    2.3640 ca        1 HXS     -0.105300
      6 O16         2.2620    0.1360   -1.1450 oh        1 HXS     -0.498100
      7 C          -0.6450    0.1190    1.1290 ca        1 HXS     -0.092500
      8 C7         -0.7650   -0.0070    3.6470 c3        1 HXS     -0.010400
      9 C17        -1.6330   -1.2620    3.6970 c3        1 HXS     -0.077400
     10 C18        -0.8070   -2.5130    3.8550 c3        1 HXS     -0.093100
     11 C8         -1.6210    1.2570    3.8330 c3        1 HXS     -0.010400
     12 C19        -0.7530    2.5130    3.7830 c3        1 HXS     -0.077400
     13 C20        -1.5790    3.7640    3.6250 c3        1 HXS     -0.093100
     14 C9         -2.3960    1.2070    5.1150 ca        1 HXS     -0.105300
     15 C14        -3.7970    1.2520    5.0870 ca        1 HXS     -0.092500
     16 C13        -4.5390    1.2210    6.2620 ca        1 HXS     -0.183500
     17 C12        -3.8660    1.1420    7.4920 ca        1 HXS      0.120100
     18 O15        -4.6510    1.1140    8.6220 oh        1 HXS     -0.498100
     19 C11        -2.4660    1.0970    7.5400 ca        1 HXS     -0.183500
     20 C10        -1.7430    1.1300    6.3510 ca        1 HXS     -0.092500
     21 H1         -0.4430    0.2120   -1.0260 ha        1 HXS      0.141500
     22 H3          3.2490   -0.0040    1.2320 ha        1 HXS      0.141500
     23 H4          1.9350   -0.0620    3.3570 ha        1 HXS      0.134000
     24 HO16        1.6750    0.1870   -1.9120 ho        1 HXS      0.418000
     25 H          -1.7450    0.1520    1.0930 ha        1 HXS      0.134000
     26 H7         -0.0370   -0.0520    4.5080 hc        1 HXS      0.052700
     27 H17        -2.2460   -1.3290    2.7600 hc        1 HXS      0.045700
     28 H17A       -2.3480   -1.1790    4.5590 hc        1 HXS      0.045700
     29 H18        -0.0600   -2.5990    3.0290 hc        1 HXS      0.034700
     30 H18A       -1.4660   -3.4150    3.8330 hc        1 HXS      0.034700
     31 H18B       -0.2570   -2.5040    4.8270 hc        1 HXS      0.034700
     32 H8         -2.3490    1.3030    2.9720 hc        1 HXS      0.052700
     33 H19        -0.0370    2.4290    2.9230 hc        1 HXS      0.045700
     34 H19A       -0.1420    2.5790    4.7210 hc        1 HXS      0.045700
     35 H20        -0.9190    4.6650    3.6470 hc        1 HXS      0.034700
     36 H20A       -2.3270    3.8500    4.4490 hc        1 HXS      0.034700
     37 H20B       -2.1280    3.7540    2.6520 hc        1 HXS      0.034700
     38 H14        -4.3220    1.3140    4.1210 ha        1 HXS      0.134000
     39 H13        -5.6370    1.2560    6.2450 ha        1 HXS      0.141500
     40 HO15       -4.0640    1.0620    9.3900 ho        1 HXS      0.418000
     41 H11        -1.9460    1.0360    8.5050 ha        1 HXS      0.141500
     42 H10        -0.6430    1.0960    6.3880 ha        1 HXS      0.134000
@<TRIPOS>BOND
     1    1    2 ar  
     2    1    7 ar  
     3    1   21 1   
     4    2    3 ar  
     5    2    6 1   
     6    3    4 ar  
     7    3   22 1   
     8    4    5 ar  
     9    4   23 1   
    10    5    7 ar  
    11    5    8 1   
    12    6   24 1   
    13    7   25 1   
    14    8    9 1   
    15    8   11 1   
    16    8   26 1   
    17    9   10 1   
    18    9   27 1   
    19    9   28 1   
    20   10   29 1   
    21   10   30 1   
    22   10   31 1   
    23   11   12 1   
    24   11   14 1   
    25   11   32 1   
    26   12   13 1   
    27   12   33 1   
    28   12   34 1   
    29   13   35 1   
    30   13   36 1   
    31   13   37 1   
    32   14   15 ar  
    33   14   20 ar  
    34   15   16 ar  
    35   15   38 1   
    36   16   17 ar  
    37   16   39 1   
    38   17   18 1   
    39   17   19 ar  
    40   18   40 1   
    41   19   20 ar  
    42   19   41 1   
    43   20   42 1   
@<TRIPOS>SUBSTRUCTURE
     1 HXS         1 TEMP              0 ****  ****    0 ROOT
