@<TRIPOS>MOLECULE
molecule
   42    43     1     0     0
SMALL
bcc


@<TRIPOS>ATOM
      1 C1           0.0000     0.0000     0.0000 ca         1 HXS      -0.150000
      2 C2           1.3870     0.0000     0.0000 ca         1 HXS       0.099100
      3 C3           2.0790     0.0000     1.2030 ca         1 HXS      -0.150000
      4 C4           1.3850     0.0010     2.3960 ca         1 HXS      -0.114250
      5 C5           0.0030     0.0020     2.3950 ca         1 HXS      -0.081300
      6 O16          2.0680    -0.0020    -1.1770 oh         1 HXS      -0.522100
      7 C           -0.6890     0.0020     1.1980 ca         1 HXS      -0.114250
      8 C7          -0.7520     0.0030     3.7000 c3         1 HXS      -0.019400
      9 C17         -1.6460    -1.2370     3.7720 c3         1 HXS      -0.078400
     10 C18         -0.7740    -2.4940     3.8100 c3         1 HXS      -0.092100
     11 C8          -1.6170     1.2610     3.7880 c3         1 HXS      -0.019400
     12 C19         -0.7210     2.5000     3.7350 c3         1 HXS      -0.078400
     13 C20         -1.5920     3.7580     3.6830 c3         1 HXS      -0.092100
     14 C9          -2.3860     1.2520     5.0830 ca         1 HXS      -0.081300
     15 C14         -3.7690     1.2690     5.0640 ca         1 HXS      -0.114250
     16 C13         -4.4770     1.2610     6.2500 ca         1 HXS      -0.150000
     17 C12         -3.8000     1.2340     7.4610 ca         1 HXS       0.099100
     18 O15         -4.4950     1.2250     8.6290 oh         1 HXS      -0.522100
     19 C11         -2.4120     1.2170     7.4770 ca         1 HXS      -0.150000
     20 C10         -1.7090     1.2210     6.2880 ca         1 HXS      -0.114250
     21 H1          -0.5420     0.0000    -0.9380 ha         1 HXS       0.139500
     22 H3           3.1620    -0.0000     1.2050 ha         1 HXS       0.139500
     23 H4           1.9250     0.0010     3.3360 ha         1 HXS       0.133500
     24 HO16         2.1780     0.8850    -1.4780 ho         1 HXS       0.418000
     25 H           -1.7730     0.0020     1.1990 ha         1 HXS       0.133500
     26 H7          -0.0480    -0.0100     4.5240 hc         1 HXS       0.058700
     27 H17         -2.2530    -1.1920     4.6680 hc         1 HXS       0.046200
     28 H17A        -2.2890    -1.2700     2.9010 hc         1 HXS       0.046200
     29 H18         -1.3600    -3.3290     4.1730 hc         1 HXS       0.035367
     30 H18A         0.0680    -2.3290     4.4720 hc         1 HXS       0.035367
     31 H18B        -0.4120    -2.7120     2.8130 hc         1 HXS       0.035367
     32 H8          -2.3100     1.2810     2.9560 hc         1 HXS       0.058700
     33 H19         -0.0960     2.4570     2.8510 hc         1 HXS       0.046200
     34 H19A        -0.0950     2.5310     4.6190 hc         1 HXS       0.046200
     35 H20         -2.4170     3.5980     2.9990 hc         1 HXS       0.035367
     36 H20A        -1.9790     3.9700     4.6720 hc         1 HXS       0.035367
     37 H20B        -0.9960     4.5950     3.3410 hc         1 HXS       0.035367
     38 H14         -4.2970     1.2900     4.1180 ha         1 HXS       0.133500
     39 H13         -5.5600     1.2750     6.2360 ha         1 HXS       0.139500
     40 HO15        -4.6360     0.3340     8.9040 ho         1 HXS       0.418000
     41 H11         -1.8810     1.1940     8.4210 ha         1 HXS       0.139500
     42 H10         -0.6260     1.2070     6.3000 ha         1 HXS       0.133500
@<TRIPOS>BOND
     1     1     2 ar
     2     1     7 ar
     3     2     3 ar
     4     2     6 1
     5     3     4 ar
     6     4     5 ar
     7     5     7 ar
     8     5     8 1
     9     8     9 1
    10     8    11 1
    11     9    10 1
    12    11    12 1
    13    11    14 1
    14    12    13 1
    15    14    15 ar
    16    14    20 ar
    17    15    16 ar
    18    16    17 ar
    19    17    18 1
    20    17    19 ar
    21    19    20 ar
    22     1    21 1
    23     3    22 1
    24     4    23 1
    25     6    24 1
    26     7    25 1
    27     8    26 1
    28     9    27 1
    29     9    28 1
    30    10    29 1
    31    10    30 1
    32    10    31 1
    33    11    32 1
    34    12    33 1
    35    12    34 1
    36    13    35 1
    37    13    36 1
    38    13    37 1
    39    15    38 1
    40    16    39 1
    41    18    40 1
    42    19    41 1
    43    20    42 1
@<TRIPOS>SUBSTRUCTURE
     1 HXS         1 TEMP              0 ****  ****    0 ROOT
