@<TRIPOS>MOLECULE
HXT
   18    18     1     0     0
SMALL
bcc


@<TRIPOS>ATOM
      1 CAF        -0.0250    0.0040   -0.0070 ca        1 HXT     -0.084000
      2 CAD         1.3690    0.0030   -0.0170 ca        1 HXT     -0.143000
      3 CAC         2.0800    0.0010    1.1830 ca        1 HXT     -0.101000
      4 CAE         1.3940    0.0000    2.3970 ca        1 HXT     -0.143000
      5 CAG         0.0000    0.0010    2.4110 ca        1 HXT     -0.084000
      6 CAJ        -0.7210    0.0030    1.2080 ca        1 HXT     -0.177600
      7 CAI        -2.2000    0.0030    1.2740 c         1 HXT      0.572700
      8 OAA        -2.8040   -0.0010    2.3490 o         1 HXT     -0.495100
      9 CAH        -2.9190    0.0090   -0.0560 c3        1 HXT      0.033400
     10 OAB        -4.3120    0.0120    0.1930 oh        1 HXT     -0.569800
     11 H1         -0.5670    0.0050   -0.9650 ha        1 HXT      0.144000
     12 H2          1.9090    0.0040   -0.9760 ha        1 HXT      0.137500
     13 H3          3.1800    0.0010    1.1710 ha        1 HXT      0.136000
     14 H4          1.9500   -0.0010    3.3460 ha        1 HXT      0.137500
     15 H5         -0.5510   -0.0000    3.3660 ha        1 HXT      0.144000
     16 H6         -2.6300   -0.9080   -0.6380 h1        1 HXT      0.045700
     17 H7         -2.6260    0.9290   -0.6320 h1        1 HXT      0.045700
     18 H8         -4.7400    0.0160   -0.6720 ho        1 HXT      0.401000
@<TRIPOS>BOND
     1    1    2 ar  
     2    1    6 ar  
     3    1   11 1   
     4    2    3 ar  
     5    2   12 1   
     6    3    4 ar  
     7    3   13 1   
     8    4    5 ar  
     9    4   14 1   
    10    5    6 ar  
    11    5   15 1   
    12    6    7 1   
    13    7    8 2   
    14    7    9 1   
    15    9   10 1   
    16    9   16 1   
    17    9   17 1   
    18   10   18 1   
@<TRIPOS>SUBSTRUCTURE
     1 HXT         1 TEMP              0 ****  ****    0 ROOT
