@<TRIPOS>MOLECULE
molecule
   18    18     1     0     0
SMALL
bcc


@<TRIPOS>ATOM
      1 CAF          0.0000     0.0000     0.0000 ca         1 HXT      -0.080500
      2 CAD          1.3780     0.0000     0.0000 ca         1 HXT      -0.141000
      3 CAC          2.0750     0.0000     1.1960 ca         1 HXT      -0.100000
      4 CAE          1.3940    -0.0000     2.4010 ca         1 HXT      -0.141000
      5 CAG          0.0150    -0.0000     2.4180 ca         1 HXT      -0.080500
      6 CAJ         -0.6960     0.0060     1.2140 ca         1 HXT      -0.176600
      7 CAI         -2.1670     0.0050     1.2230 c          1 HXT       0.571700
      8 OAA         -2.7660     0.0000     2.2770 o          1 HXT      -0.491100
      9 CAH         -2.9290     0.0120    -0.0780 c3         1 HXT       0.046400
     10 OAB         -4.3320     0.0100     0.1920 oh         1 HXT      -0.581800
     11 H1          -0.5430     0.0020    -0.9370 ha         1 HXT       0.142000
     12 H2           1.9180    -0.0020    -0.9390 ha         1 HXT       0.135000
     13 H3           3.1580     0.0000     1.1880 ha         1 HXT       0.133000
     14 H4           1.9460    -0.0020     3.3330 ha         1 HXT       0.135000
     15 H5          -0.5160     0.0020     3.3620 ha         1 HXT       0.142000
     16 H6          -2.6710     0.9000    -0.6420 h1         1 HXT       0.041700
     17 H7          -2.6700    -0.8690    -0.6530 h1         1 HXT       0.041700
     18 H8          -4.8090     0.0160    -0.6210 ho         1 HXT       0.403000
@<TRIPOS>BOND
     1     8     7 2
     2     7     6 1
     3     7     9 1
     4     5     6 ar
     5     5     4 ar
     6    10     9 1
     7     6     1 ar
     8     4     3 ar
     9     1     2 ar
    10     3     2 ar
    11     1    11 1
    12     2    12 1
    13     3    13 1
    14     4    14 1
    15     5    15 1
    16     9    16 1
    17     9    17 1
    18    10    18 1
@<TRIPOS>SUBSTRUCTURE
     1 HXT         1 TEMP              0 ****  ****    0 ROOT
