@<TRIPOS>MOLECULE
HXX
   15    14     1     0     0
SMALL
bcc


@<TRIPOS>ATOM
      1 C2          0.0370    0.1110    0.1460 c2        1 HXX      0.055000
      2 C3          1.4900    0.2710    0.2560 c2        1 HXX     -0.022000
      3 C4          2.2520   -0.5470    1.0010 c2        1 HXX     -0.213000
      4 C5          1.0460    0.0070    2.9250 c1        1 HXX      0.081000
      5 C6         -0.2040    0.3050    2.5600 c2        1 HXX     -0.241000
      6 O1'        -2.8490    0.1820    0.0920 o         1 HXX     -0.550500
      7 O2'        -2.7800   -1.0370    1.9610 o         1 HXX     -0.550500
      8 C1         -0.7670    0.0550    1.2460 c2        1 HXX     -0.165000
      9 O2         -0.3990   -0.0010   -1.1490 oh        1 HXX     -0.286000
     10 CL1         2.1880    1.6030   -0.5600 cl        1 HXX     -0.043000
     11 CL2        -1.1890    1.0580    3.7410 cl        1 HXX      0.004000
     12 H4          1.8490   -1.4810    1.4280 ha        1 HXX      0.138500
     13 H5          3.3220   -0.3760    1.1680 ha        1 HXX      0.138500
     14 HO2        -1.3790    0.0650   -1.1510 ho        1 HXX      0.279000
     15 C1'        -2.2490   -0.2850    1.1090 c2        1 HXX      0.374000
@<TRIPOS>BOND
     1    1    2 1   
     2    1    8 1   
     3    1    9 1   
     4    2    3 1   
     5    2   10 1   
     6    3   12 1   
     7    3   13 1   
     8    4    5 1   
     9    5    8 1   
    10    5   11 1   
    11    6   15 1   
    12    7   15 1   
    13    8   15 1   
    14    9   14 1   
@<TRIPOS>SUBSTRUCTURE
     1 HXX         1 TEMP              0 ****  ****    0 ROOT
