@<TRIPOS>MOLECULE
molecule
   15    15     1     0     0
SMALL
bcc


@<TRIPOS>ATOM
      1 C2           0.0000     0.0000     0.0000 ca         1 HXX       0.135100
      2 C3           1.3870     0.0000     0.0000 ca         1 HXX      -0.026600
      3 C4           2.0800     0.0000     1.1940 ca         1 HXX      -0.138000
      4 C5           1.3990    -0.0010     2.4010 ca         1 HXX      -0.147000
      5 C6           0.0210    -0.0000     2.4210 ca         1 HXX       0.055400
      6 O1'         -2.7750     1.0610     1.2420 o          1 HXX      -0.815800
      7 O2'         -2.8430    -1.1580     1.2310 o          1 HXX      -0.815800
      8 C1          -0.6950     0.0060     1.2180 ca         1 HXX      -0.066600
      9 O2          -0.6820     0.0010    -1.1730 oh         1 HXX      -0.488100
     10 Cl1          2.2540     0.0000    -1.5050 cl         1 HXX      -0.147400
     11 Cl2         -0.8280    -0.0010     3.9360 cl         1 HXX      -0.103400
     12 H4           3.1640    -0.0000     1.1880 ha         1 HXX       0.125000
     13 H5           1.9520    -0.0030     3.3320 ha         1 HXX       0.126000
     14 HO2         -0.5430    -0.8190    -1.6180 ho         1 HXX       0.415000
     15 C1'         -2.1680     0.0080     1.2310 c          1 HXX       0.891200
@<TRIPOS>BOND
     1     8     1 ar
     2     1     9 1
     3     1     2 ar
     4     3     2 ar
     5     2    10 1
     6     4     3 ar
     7     3    12 1
     8     5     4 ar
     9     4    13 1
    10    11     5 1
    11     5     8 ar
    12     6    15 1
    13    15     8 1
    14    15     7 1
    15     9    14 1
@<TRIPOS>SUBSTRUCTURE
     1 HXX         1 TEMP              0 ****  ****    0 ROOT
