@<TRIPOS>MOLECULE
HXY
   27    28     1     0     0
SMALL
bcc


@<TRIPOS>ATOM
      1 C            0.0000     0.0000     0.0000 ca         1 HXY       0.036100
      2 N            2.3800     1.3860     4.1230 n3         1 HXY      -0.538600
      3 Br          -0.9460     0.0010    -1.6390 br         1 HXY      -0.136100
      4 C1           1.3830     0.0000     0.0000 ca         1 HXY      -0.084000
      5 C2           2.0740     0.0000     1.1980 ca         1 HXY      -0.085500
      6 C3           1.3820     0.0010     2.3940 ca         1 HXY      -0.082300
      7 C4           2.1360     0.0020     3.6990 c3         1 HXY       0.210100
      8 C5           3.3170     1.4340     5.2670 c3         1 HXY       0.146800
      9 C6           2.8870     2.6160     6.1550 c3         1 HXY      -0.028400
     10 C7           1.6380     3.2080     5.4620 c3         1 HXY      -0.028400
     11 C8           1.1280     2.0270     4.6000 c3         1 HXY       0.146800
     12 C9           0.0000     0.0010     2.3950 ca         1 HXY      -0.085500
     13 C10         -0.6910     0.0050     1.1980 ca         1 HXY      -0.084000
     14 H1           1.9250    -0.0010    -0.9380 ha         1 HXY       0.115500
     15 H2           3.1580    -0.0000     1.1980 ha         1 HXY       0.110500
     16 H4           1.5510    -0.5090     4.4540 h1         1 HXY       0.013700
     17 H4A          3.0830    -0.5090     3.5700 h1         1 HXY       0.013700
     18 H5           4.3270     1.5910     4.9090 h1         1 HXY       0.013950
     19 H5A          3.2580     0.5100     5.8300 h1         1 HXY       0.013950
     20 H6           3.6760     3.3560     6.2010 hc         1 HXY       0.019200
     21 H6A          2.6330     2.2650     7.1480 hc         1 HXY       0.019200
     22 H7           0.8950     3.4950     6.1950 hc         1 HXY       0.019200
     23 H7A          1.9120     4.0480     4.8340 hc         1 HXY       0.019200
     24 H8           0.5440     2.3910     3.7630 h1         1 HXY       0.013950
     25 H8A          0.5530     1.3360     5.2040 h1         1 HXY       0.013950
     26 H9          -0.5410     0.0030     3.3330 ha         1 HXY       0.110500
     27 H10         -1.7740     0.0050     1.1990 ha         1 HXY       0.115500
@<TRIPOS>BOND
     1     1     3 1   
     2     1     4 ar  
     3     1    13 ar  
     4     2     7 1   
     5     2     8 1   
     6     2    11 1   
     7     4     5 ar  
     8     4    14 1   
     9     5     6 ar  
    10     5    15 1   
    11     6     7 1   
    12     6    12 ar  
    13     7    16 1   
    14     7    17 1   
    15     8     9 1   
    16     8    18 1   
    17     8    19 1   
    18     9    10 1   
    19     9    20 1   
    20     9    21 1   
    21    10    11 1   
    22    10    22 1   
    23    10    23 1   
    24    11    24 1   
    25    11    25 1   
    26    12    13 ar  
    27    12    26 1   
    28    13    27 1   
@<TRIPOS>SUBSTRUCTURE
     1 HXY         1 TEMP              0 ****  ****    0 ROOT
