@<TRIPOS>MOLECULE
molecule
   48    49     1     0     0
SMALL
bcc


@<TRIPOS>ATOM
      1 C1           1.5300     0.0000     0.0000 c3         1 HXZ      -0.073400
      2 N1          -1.6410     3.2010    -0.0220 n          1 HXZ      -0.339000
      3 O1           0.4230    -2.0980    -4.5220 os         1 HXZ      -0.724800
      4 P1          -0.2810    -2.4400    -3.1140 p5         1 HXZ       1.445800
      5 C2          -2.8260     2.8420    -0.5470 c          1 HXZ       0.801500
      6 O2          -3.1000     1.6620    -0.6570 o          1 HXZ      -0.622500
      7 P2           0.1840    -2.5830    -6.0380 p5         1 HXZ       1.517800
      8 C3           2.0400    -1.3220     0.5790 c3         1 HXZ      -0.073100
      9 N3          -3.7130     3.7700    -0.9520 ns         1 HXZ      -0.566500
     10 O3           1.5100    -2.3000    -6.9070 os         1 HXZ      -0.736800
     11 P3           2.0330    -2.8030    -8.3450 p5         1 HXZ       1.339900
     12 C4          -3.4240     5.0820    -0.8370 c          1 HXZ       0.701700
     13 O4          -4.2260     5.9230    -1.2020 o          1 HXZ      -0.723500
     14 C5          -2.1800     5.4740    -0.2860 cc         1 HXZ      -0.345400
     15 O5           3.6270    -2.5970    -8.4370 o          1 HXZ      -0.856833
     16 C6          -1.3090     4.5220     0.1110 cd         1 HXZ      -0.069400
     17 O6           1.7100    -4.2370    -8.5130 o          1 HXZ      -0.856833
     18 O7           1.3130    -1.9510    -9.5050 o          1 HXZ      -0.856833
     19 O8          -1.0550    -1.7720    -6.6710 o          1 HXZ      -0.873000
     20 O9          -0.1150    -4.0320    -6.0520 o          1 HXZ      -0.873000
     21 C1'         -0.6970     2.1690     0.4140 c3         1 HXZ       0.317500
     22 O10         -1.7460    -2.5350    -3.3060 o          1 HXZ      -0.857500
     23 O11          0.2800    -3.8440    -2.5600 o          1 HXZ      -0.857500
     24 C2'         -1.3030     1.3320     1.5710 c3         1 HXZ      -0.164400
     25 C3'         -0.5240     0.0000     1.4490 c3         1 HXZ       0.110100
     26 O3'          0.5620    -0.0320     2.3770 oh         1 HXZ      -0.599800
     27 C4'          0.0000     0.0000     0.0000 c3         1 HXZ       0.149800
     28 O4'         -0.4850     1.1970    -0.6330 os         1 HXZ      -0.341600
     29 C5'         -0.5190    -1.2330    -0.7420 c3         1 HXZ       0.242400
     30 O5'          0.0480    -1.2740    -2.0530 os         1 HXZ      -0.587200
     31 C5M         -1.8320     6.9340    -0.1460 c3         1 HXZ       0.016100
     32 H1A          1.8910     0.8230     0.6050 hc         1 HXZ       0.047700
     33 H3B          1.2280    -1.8340     1.0810 hc         1 HXZ       0.028367
     34 H3A          2.8350    -1.1230     1.2870 hc         1 HXZ       0.028367
     35 HN3         -4.5900     3.4850    -1.3400 hn         1 HXZ       0.345500
     36 H6          -0.3520     4.8020     0.5350 h4         1 HXZ       0.131000
     37 H1'          0.2450     2.6090     0.7190 h2         1 HXZ       0.054700
     38 H2'         -2.3630     1.1730     1.4160 hc         1 HXZ       0.053700
     39 H2'A        -1.1110     1.8030     2.5270 hc         1 HXZ       0.053700
     40 H3'         -1.1890    -0.8400     1.6080 h1         1 HXZ       0.052700
     41 HO3'         0.2340    -0.2340     3.2370 ho         1 HXZ       0.370000
     42 H5'         -1.5990    -1.1810    -0.8160 h1         1 HXZ       0.033700
     43 H5'A        -0.2370    -2.1270    -0.1980 h1         1 HXZ       0.033700
     44 H5M         -0.8470     7.0290     0.2930 hc         1 HXZ       0.015367
     45 H5MA        -2.5610     7.4190     0.4920 hc         1 HXZ       0.015367
     46 H5MB        -1.8390     7.4020    -1.1230 hc         1 HXZ       0.015367
     47 H1B          1.8910     0.1130    -1.0150 hc         1 HXZ       0.047700
     48 H3C          2.4190    -1.9450    -0.2230 hc         1 HXZ       0.028367
@<TRIPOS>BOND
     1     8     1 1
     2     1    27 1
     3     1    32 1
     4    21     2 1
     5    16     2 1
     6     2     5 1
     7     7     3 1
     8     4     3 1
     9    22     4 1
    10     4    30 1
    11     4    23 1
    12     5     6 2
    13     5     9 1
    14    20     7 1
    15    10     7 1
    16     7    19 1
    17     8    33 1
    18     8    34 1
    19    12     9 1
    20     9    35 1
    21    11    10 1
    22    17    11 1
    23    18    11 1
    24    11    15 1
    25    14    12 1
    26    12    13 2
    27    16    14 2
    28    31    14 1
    29    16    36 1
    30    28    21 1
    31    24    21 1
    32    21    37 1
    33    25    24 1
    34    24    38 1
    35    24    39 1
    36    26    25 1
    37    27    25 1
    38    25    40 1
    39    26    41 1
    40    29    27 1
    41    27    28 1
    42    29    30 1
    43    29    42 1
    44    29    43 1
    45    31    44 1
    46    31    45 1
    47    31    46 1
    48     1    47 1
    49     8    48 1
@<TRIPOS>SUBSTRUCTURE
     1 HXZ         1 TEMP              0 ****  ****    0 ROOT
