@<TRIPOS>MOLECULE
molecule
   17    17     1     0     0
SMALL
bcc


@<TRIPOS>ATOM
      1 C1'          0.0000     0.0000     0.0000 ca         1 HY1      -0.087300
      2 C2'          1.3820     0.0000     0.0000 ca         1 HY1      -0.121500
      3 C3'          2.0710     0.0000     1.1990 ca         1 HY1      -0.124500
      4 C4'          1.3790     0.0000     2.3940 ca         1 HY1      -0.125000
      5 C5'         -0.0030     0.0020     2.3920 ca         1 HY1      -0.124500
      6 C6'         -0.6920     0.0050     1.1940 ca         1 HY1      -0.121500
      7 CA          -0.7520     0.0010    -1.3060 c3         1 HY1      -0.156100
      8 C           -1.0030    -1.4190    -1.7430 c          1 HY1       0.575900
      9 O           -2.1340    -1.8140    -1.8930 o          1 HY1      -0.520100
     10 H2           1.9240    -0.0020    -0.9380 ha         1 HY1       0.133000
     11 H3           3.1550    -0.0010     1.2000 ha         1 HY1       0.132000
     12 H4           1.9200    -0.0010     3.3330 ha         1 HY1       0.131000
     13 H5          -0.5460     0.0040     3.3300 ha         1 HY1       0.132000
     14 H6          -1.7750     0.0060     1.1930 ha         1 HY1       0.133000
     15 HA1         -0.1650     0.5120    -2.0600 hc         1 HY1       0.073200
     16 HA2         -1.6990     0.5120    -1.1780 hc         1 HY1       0.073200
     17 H           -0.1680    -2.0760    -1.9540 h4         1 HY1      -0.001800
@<TRIPOS>BOND
     1     1     2 ar
     2     1     6 ar
     3     1     7 1
     4     2     3 ar
     5     2    10 1
     6     3     4 ar
     7     3    11 1
     8     4     5 ar
     9     4    12 1
    10     5     6 ar
    11     5    13 1
    12     6    14 1
    13     7     8 1
    14     7    15 1
    15     7    16 1
    16     8     9 2
    17     8    17 1
@<TRIPOS>SUBSTRUCTURE
     1 HY1         1 TEMP              0 ****  ****    0 ROOT
