@<TRIPOS>MOLECULE
HY1
   17    17     1     0     0
SMALL
bcc


@<TRIPOS>ATOM
      1 C1'        -0.0960   -0.0340    0.0480 ca        1 HY1     -0.085300
      2 C2'         1.2980   -0.1300   -0.0410 ca        1 HY1     -0.125000
      3 C3'         2.0790   -0.0990    1.1130 ca        1 HY1     -0.126000
      4 C4'         1.4760    0.0300    2.3640 ca        1 HY1     -0.126000
      5 C5'         0.0880    0.1290    2.4580 ca        1 HY1     -0.126000
      6 C6'        -0.6970    0.0960    1.3050 ca        1 HY1     -0.125000
      7 CA         -0.9280   -0.0570   -1.1830 c3        1 HY1     -0.160100
      8 C          -0.8860   -1.3930   -1.8680 c         1 HY1      0.569900
      9 O          -1.8250   -1.8270   -2.5350 o         1 HY1     -0.526100
     10 H2          1.7760   -0.2280   -1.0260 ha        1 HY1      0.132500
     11 H3          3.1740   -0.1760    1.0350 ha        1 HY1      0.134000
     12 H4          2.0930    0.0550    3.2730 ha        1 HY1      0.134000
     13 H5         -0.3910    0.2320    3.4430 ha        1 HY1      0.134000
     14 H6         -1.7920    0.1740    1.3850 ha        1 HY1      0.132500
     15 HA1        -1.9930    0.2140   -0.9500 hc        1 HY1      0.081200
     16 HA2        -0.5430    0.7090   -1.9140 hc        1 HY1      0.081200
     17 H           0.0610   -1.9660   -1.7440 h4        1 HY1      0.001200
@<TRIPOS>BOND
     1    1    2 ar  
     2    1    6 ar  
     3    1    7 1   
     4    2    3 ar  
     5    2   10 1   
     6    3    4 ar  
     7    3   11 1   
     8    4    5 ar  
     9    4   12 1   
    10    5    6 ar  
    11    5   13 1   
    12    6   14 1   
    13    7    8 1   
    14    7   15 1   
    15    7   16 1   
    16    8    9 2   
    17    8   17 1   
@<TRIPOS>SUBSTRUCTURE
     1 HY1         1 TEMP              0 ****  ****    0 ROOT
