@<TRIPOS>MOLECULE
molecule
   83    89     1     0     0
SMALL
bcc


@<TRIPOS>ATOM
      1 C1           0.0000     0.0000     0.0000 c3         1 HY2      -0.100400
      2 O2           6.8060    -2.5640    -0.7130 os         1 HY2      -0.312900
      3 C3           0.7840     0.3080     2.2550 c3         1 HY2       0.115000
      4 N4           1.9480     0.0000     1.4370 n          1 HY2      -0.485800
      5 O5           3.5190    -0.5650     2.9580 o          1 HY2      -0.635500
      6 C7           5.9760    -1.5060    -0.5030 ca         1 HY2       0.097100
      7 C9           5.2130     0.7050    -1.1430 ca         1 HY2      -0.254000
      8 N10          3.2960     1.6310    -0.0160 nu         1 HY2      -0.737600
      9 C11          1.9210     1.4560    -0.5620 c3         1 HY2       0.179800
     10 C12          6.6490    -3.6930     0.1490 c3         1 HY2       0.126700
     11 C13          7.0840     0.8740    -3.0640 c3         1 HY2       0.135400
     12 O13          7.0300    -0.3130    -2.2700 os         1 HY2      -0.310900
     13 C14          8.2160     0.7530    -4.0870 c3         1 HY2      -0.083400
     14 C15          8.2730     2.0240    -4.9360 c3         1 HY2       0.164800
     15 N16          9.3590     1.9070    -5.9190 n3         1 HY2      -0.729600
     16 C17          9.6010     3.1920    -6.5910 c3         1 HY2       0.161800
     17 C18         10.7880     3.0490    -7.5450 c3         1 HY2       0.163300
     18 N19         10.5020     1.9910    -8.5240 n3         1 HY2      -0.731600
     19 C1A          1.5500     0.0000     0.0000 c3         1 HY2       0.085700
     20 C20         10.2610     0.7060    -7.8520 c3         1 HY2       0.163300
     21 C21          9.0720     0.8500    -6.8980 c3         1 HY2       0.161800
     22 C22         11.5880     1.8740    -9.5070 c3         1 HY2       0.145800
     23 C23         11.1510     0.9490   -10.6440 c3         1 HY2       0.092000
     24 N24         12.2340     0.8330   -11.6230 n          1 HY2      -0.473400
     25 C25         13.1450    -0.1460   -11.4690 c          1 HY2       0.721100
     26 O25         13.0580    -0.9120   -10.5280 o          1 HY2      -0.611500
     27 C26         14.2470    -0.2950   -12.4320 ca         1 HY2      -0.165600
     28 C27         15.2080    -1.2880   -12.3090 ca         1 HY2      -0.028000
     29 C28         16.2320    -1.3870   -13.2450 ca         1 HY2      -0.151000
     30 C29         16.3240    -0.5240   -14.2990 ca         1 HY2      -0.072000
     31 C2D         -0.3860    -0.3360     1.4620 c3         1 HY2      -0.115400
     32 C30         15.3700     0.4970   -14.4580 ca         1 HY2      -0.062000
     33 C31         15.4220     1.4100   -15.5260 ca         1 HY2      -0.072000
     34 C32         14.4720     2.3840   -15.6380 ca         1 HY2      -0.151000
     35 C33         13.4400     2.5050   -14.7150 ca         1 HY2      -0.028000
     36 C34         14.3270     0.6070   -13.5160 ca         1 HY2       0.013000
     37 C35         13.3530     1.6230   -13.6480 ca         1 HY2      -0.165600
     38 C36         12.2780     1.7050   -12.6480 c          1 HY2       0.721100
     39 O36         11.4260     2.5670   -12.7440 o          1 HY2      -0.611500
     40 C5A          4.2040    -0.4530     0.6820 ca         1 HY2      -0.152600
     41 C5D          3.2130    -0.3500     1.8000 c          1 HY2       0.753100
     42 C6D          5.0320    -1.5530     0.5090 ca         1 HY2      -0.136000
     43 C8D          6.0740    -0.3680    -1.3070 ca         1 HY2       0.151100
     44 C9A          4.2380     0.6480    -0.1480 ca         1 HY2       0.146600
     45 H6D          5.1140    -2.2980     1.2920 ha         1 HY2       0.162000
     46 H9           5.3020     1.5810    -1.7750 ha         1 HY2       0.142000
     47 HN10         3.6740     2.5000    -0.3370 hn         1 HY2       0.369800
     48 H11          1.9300     1.4620    -1.6450 h1         1 HY2       0.048200
     49 H1          -0.3660    -0.7760    -0.6620 hc         1 HY2       0.053200
     50 H1A          1.9840    -0.8100    -0.5730 h1         1 HY2       0.084700
     51 H1B         -0.3660     0.9870    -0.2570 hc         1 HY2       0.053200
     52 H17          9.8230     3.9500    -5.8490 h1         1 HY2       0.042450
     53 H17A         8.7190     3.4760    -7.1520 h1         1 HY2       0.042450
     54 H18         10.9480     3.9860    -8.0650 h1         1 HY2       0.045200
     55 H18A        11.6750     2.7870    -6.9810 h1         1 HY2       0.045200
     56 H20         10.0380    -0.0520    -8.5930 h1         1 HY2       0.045200
     57 H20A        11.1420     0.4220    -7.2900 h1         1 HY2       0.045200
     58 H21          8.1860     1.1130    -7.4630 h1         1 HY2       0.042450
     59 H21A         8.9120    -0.0880    -6.3790 h1         1 HY2       0.042450
     60 H22         11.8190     2.8540    -9.9080 h1         1 HY2       0.045700
     61 H2D         -1.3300     0.1240     1.7270 hc         1 HY2       0.055200
     62 H2DA        -0.4120    -1.4080     1.6170 hc         1 HY2       0.055200
     63 H22A        12.4680     1.4640    -9.0260 h1         1 HY2       0.045700
     64 H23         10.2710     1.3590   -11.1250 h1         1 HY2       0.083200
     65 H23A        10.9200    -0.0310   -10.2430 h1         1 HY2       0.083200
     66 H29         17.1320    -0.6250   -15.0130 ha         1 HY2       0.139000
     67 H28         16.9740    -2.1680   -13.1350 ha         1 HY2       0.140000
     68 H27         15.1620    -1.9870   -11.4830 ha         1 HY2       0.159000
     69 H31         16.2160     1.3410   -16.2600 ha         1 HY2       0.139000
     70 H32         14.5250     3.0810   -16.4660 ha         1 HY2       0.140000
     71 H33         12.7010     3.2880   -14.8310 ha         1 HY2       0.159000
     72 H3           0.8870    -0.2490     3.1780 h1         1 HY2       0.068700
     73 H13          7.2660     1.7290    -2.4240 h1         1 HY2       0.032700
     74 H3A          0.6420     1.3820     2.2140 h1         1 HY2       0.068700
     75 H13A         6.1420     1.0050    -3.5820 h1         1 HY2       0.032700
     76 H12          7.3280    -4.4790    -0.1580 h1         1 HY2       0.042367
     77 H12A         5.6290    -4.0530     0.0900 h1         1 HY2       0.042367
     78 H12B         6.8710    -3.4020     1.1690 h1         1 HY2       0.042367
     79 H14          9.1580     0.6220    -3.5690 hc         1 HY2       0.066200
     80 H14A         8.0330    -0.1010    -4.7280 hc         1 HY2       0.066200
     81 H15          8.4560     2.8780    -4.2950 h1         1 HY2       0.033200
     82 H15A         7.3300     2.1550    -5.4530 h1         1 HY2       0.033200
     83 H11A         1.2480     2.2070    -0.1650 h1         1 HY2       0.048200
@<TRIPOS>BOND
     1     1    19 1
     2     1    31 1
     3     1    49 1
     4     1    51 1
     5     2     6 1
     6     2    10 1
     7     3     4 1
     8     3    31 1
     9     3    72 1
    10     3    74 1
    11     4    19 1
    12     4    41 1
    13     5    41 2
    14     6    42 ar
    15     6    43 ar
    16     7    43 ar
    17     7    44 ar
    18     7    46 1
    19     8     9 1
    20     8    44 1
    21     8    47 1
    22     9    19 1
    23     9    48 1
    24    10    76 1
    25    10    77 1
    26    10    78 1
    27    11    12 1
    28    11    13 1
    29    11    73 1
    30    11    75 1
    31    12    43 1
    32    13    14 1
    33    13    79 1
    34    13    80 1
    35    14    15 1
    36    14    81 1
    37    14    82 1
    38    15    16 1
    39    15    21 1
    40    16    17 1
    41    16    52 1
    42    16    53 1
    43    17    18 1
    44    17    54 1
    45    17    55 1
    46    18    20 1
    47    18    22 1
    48    19    50 1
    49    20    21 1
    50    20    56 1
    51    20    57 1
    52    21    58 1
    53    21    59 1
    54    22    23 1
    55    22    60 1
    56    22    63 1
    57    23    24 1
    58    23    64 1
    59    23    65 1
    60    24    25 1
    61    24    38 1
    62    25    26 2
    63    25    27 1
    64    27    28 ar
    65    27    36 ar
    66    28    29 ar
    67    28    68 1
    68    29    30 ar
    69    29    67 1
    70    30    32 ar
    71    30    66 1
    72    31    61 1
    73    31    62 1
    74    32    33 ar
    75    32    36 ar
    76    33    34 ar
    77    33    69 1
    78    34    35 ar
    79    34    70 1
    80    35    37 ar
    81    35    71 1
    82    36    37 ar
    83    37    38 1
    84    38    39 2
    85    40    41 1
    86    40    42 ar
    87    40    44 ar
    88    42    45 1
    89     9    83 1
@<TRIPOS>SUBSTRUCTURE
     1 HY2         1 TEMP              0 ****  ****    0 ROOT
