@<TRIPOS>MOLECULE
molecule
   50    49     1     0     0
SMALL
bcc


@<TRIPOS>ATOM
      1 O11          0.0000     0.0000     0.0000 o          1 HY4      -0.821000
      2 P13          1.4800     0.0000     0.0000 p5         1 HY4       1.176600
      3 C3           2.0880     0.0000     1.7200 c3         1 HY4      -0.259600
      4 C2           1.4770    -1.1820     2.4760 c3         1 HY4      -0.046400
      5 C1           1.9870    -1.1810     3.9190 c3         1 HY4      -0.089100
      6 O5           2.0160     1.3140    -0.7580 os         1 HY4      -0.602200
      7 C6           1.6280     1.6580    -2.0900 c3         1 HY4       0.233400
      8 C7           2.3170     2.9600    -2.5030 c3         1 HY4       0.140100
      9 O50          1.8430     4.0300    -1.6830 os         1 HY4      -0.406600
     10 C33          2.8020     5.0700    -1.4740 c3         1 HY4       0.137400
     11 C30          2.1890     6.1570    -0.5880 c3         1 HY4      -0.081400
     12 C31          3.2140     7.2690    -0.3640 c3         1 HY4      -0.083400
     13 C32          2.6020     8.3560     0.5220 c3         1 HY4      -0.090100
     14 C8           2.0010     3.2620    -3.9690 c3         1 HY4       0.108400
     15 O9           2.7360     4.4130    -4.3880 os         1 HY4      -0.435600
     16 C26          2.5110     4.7820    -5.7500 c3         1 HY4       0.139400
     17 C27          3.3450     6.0200    -6.0880 c3         1 HY4      -0.082400
     18 C28          3.1050     6.4150    -7.5460 c3         1 HY4      -0.083400
     19 C29          3.9390     7.6530    -7.8830 c3         1 HY4      -0.090100
     20 H2           3.1670    -0.0890     1.7220 hc         1 HY4       0.040700
     21 H3           1.8010     0.9260     2.2040 hc         1 HY4       0.040700
     22 H4           1.7640    -2.1070     1.9920 hc         1 HY4       0.053700
     23 H5           0.3980    -1.0930     2.4750 hc         1 HY4       0.053700
     24 H6           3.0660    -1.2710     3.9210 hc         1 HY4       0.014700
     25 H7           1.5540    -2.0170     4.4550 hc         1 HY4       0.014700
     26 H8           1.7000    -0.2550     4.4030 hc         1 HY4       0.014700
     27 H9           1.9190     0.8640    -2.7670 h1         1 HY4       0.040200
     28 H10          0.5530     1.7900    -2.1300 h1         1 HY4       0.040200
     29 H11          3.3880     2.8560    -2.3790 h1         1 HY4       0.050700
     30 H12          3.0830     5.4990    -2.4290 h1         1 HY4       0.027700
     31 H13          3.6790     4.6600    -0.9890 h1         1 HY4       0.027700
     32 H14          1.9070     5.7280     0.3660 hc         1 HY4       0.051200
     33 H15          1.3110     6.5670    -1.0730 hc         1 HY4       0.051200
     34 H16          3.4960     7.6980    -1.3180 hc         1 HY4       0.036700
     35 H17          4.0920     6.8590     0.1210 hc         1 HY4       0.036700
     36 H18          2.3200     7.9270     1.4770 hc         1 HY4       0.029033
     37 H19          1.7240     8.7660     0.0370 hc         1 HY4       0.029033
     38 H20          3.3280     9.1440     0.6810 hc         1 HY4       0.029033
     39 H21          0.9400     3.4520    -4.0780 h1         1 HY4       0.031700
     40 H22          2.2800     2.4130    -4.5810 h1         1 HY4       0.031700
     41 H23          2.8010     3.9640    -6.3990 h1         1 HY4       0.019700
     42 H24          1.4610     5.0040    -5.8950 h1         1 HY4       0.019700
     43 H25          3.0560     6.8380    -5.4390 hc         1 HY4       0.051200
     44 H26          4.3960     5.7980    -5.9420 hc         1 HY4       0.051200
     45 H27          2.0550     6.6370    -7.6910 hc         1 HY4       0.038700
     46 H28          3.3940     5.5970    -8.1940 hc         1 HY4       0.038700
     47 H29          3.7690     7.9330    -8.9150 hc         1 HY4       0.030700
     48 H30          4.9890     7.4310    -7.7370 hc         1 HY4       0.030700
     49 H31          3.6490     8.4710    -7.2350 hc         1 HY4       0.030700
     50 O14          2.0170    -1.3080    -0.7700 o          1 HY4      -0.821000
@<TRIPOS>BOND
     1     3     2 1
     2     3     4 1
     3     2     1 1
     4     2     6 1
     5     4     5 1
     6     6     7 1
     7     7     8 1
     8     8    14 1
     9     8     9 1
    10    15    14 1
    11    15    16 1
    12    19    18 1
    13     9    10 1
    14    16    17 1
    15    18    17 1
    16    10    11 1
    17    11    12 1
    18    12    13 1
    19     3    20 1
    20     3    21 1
    21     4    22 1
    22     4    23 1
    23     5    24 1
    24     5    25 1
    25     5    26 1
    26     7    27 1
    27     7    28 1
    28     8    29 1
    29    10    30 1
    30    10    31 1
    31    11    32 1
    32    11    33 1
    33    12    34 1
    34    12    35 1
    35    13    36 1
    36    13    37 1
    37    13    38 1
    38    14    39 1
    39    14    40 1
    40    16    41 1
    41    16    42 1
    42    17    43 1
    43    17    44 1
    44    18    45 1
    45    18    46 1
    46    19    47 1
    47    19    48 1
    48    19    49 1
    49     2    50 1
@<TRIPOS>SUBSTRUCTURE
     1 HY4         1 TEMP              0 ****  ****    0 ROOT
