@<TRIPOS>MOLECULE
HY4
   50    49     1     0     0
SMALL
bcc


@<TRIPOS>ATOM
      1 O11         0.5030    0.3880    0.2460 o         1 HY4     -0.868000
      2 P13         1.5020    0.8480   -0.7430 p5        1 HY4      1.350600
      3 C3          2.8870   -0.1140   -0.7250 c3        1 HY4     -0.333600
      4 C2          2.4660   -1.4630   -1.2330 c3        1 HY4     -0.073400
      5 C1          3.5920   -2.4600   -1.2760 c3        1 HY4     -0.077100
      6 O5          2.1550    2.2650   -0.1310 os        1 HY4     -0.591200
      7 C6          1.2630    3.3210    0.0120 c3        1 HY4      0.208400
      8 C7          1.5360    4.4050   -1.0540 c3        1 HY4      0.081100
      9 O50         1.5480    5.6520   -0.3430 os        1 HY4     -0.434600
     10 C33         2.1630    6.6990   -1.0840 c3        1 HY4      0.129400
     11 C30         1.9510    7.9800   -0.2960 c3        1 HY4     -0.083400
     12 C31         2.6000    9.1510   -0.9990 c3        1 HY4     -0.079400
     13 C32         2.3970   10.4350   -0.2360 c3        1 HY4     -0.089100
     14 C8          0.4630    4.4330   -2.1470 c3        1 HY4      0.098400
     15 O9          1.0040    4.8440   -3.3990 os        1 HY4     -0.452600
     16 C26         1.5890    3.7830   -4.1550 c3        1 HY4      0.100400
     17 C27         3.0420    4.1310   -4.4400 c3        1 HY4     -0.092400
     18 C28         3.6690    3.0890   -5.3390 c3        1 HY4     -0.081400
     19 C29         5.1170    3.3970   -5.6200 c3        1 HY4     -0.088100
     20 H2          3.3110   -0.1960    0.3040 hc        1 HY4      0.067700
     21 H3          3.6900    0.3160   -1.3700 hc        1 HY4      0.067700
     22 H4          2.0310   -1.3280   -2.2600 hc        1 HY4      0.054200
     23 H5          1.6400   -1.8410   -0.5700 hc        1 HY4      0.054200
     24 H6          3.2310   -3.4450   -1.6590 hc        1 HY4      0.016700
     25 H7          4.0190   -2.6140   -0.2550 hc        1 HY4      0.016700
     26 H8          4.4110   -2.0990   -1.9440 hc        1 HY4      0.016700
     27 H9          1.4190    3.7790    1.0300 h1        1 HY4      0.032200
     28 H10         0.2040    2.9520   -0.0660 h1        1 HY4      0.032200
     29 H11         2.5440    4.2240   -1.5210 h1        1 HY4      0.061700
     30 H12         3.2590    6.4790   -1.1980 h1        1 HY4      0.031200
     31 H13         1.7010    6.7700   -2.1060 h1        1 HY4      0.031200
     32 H14         2.3810    7.8590    0.7320 hc        1 HY4      0.046700
     33 H15         0.8520    8.1620   -0.1750 hc        1 HY4      0.046700
     34 H16         3.6990    8.9540   -1.1190 hc        1 HY4      0.037200
     35 H17         2.1700    9.2530   -2.0300 hc        1 HY4      0.037200
     36 H18         2.8400   10.3590    0.7860 hc        1 HY4      0.026700
     37 H19         2.8840   11.2870   -0.7700 hc        1 HY4      0.026700
     38 H20         1.3090   10.6610   -0.1290 hc        1 HY4      0.026700
     39 H21        -0.0250    3.4260   -2.2450 h1        1 HY4      0.067700
     40 H22        -0.3060    5.2180   -1.9130 h1        1 HY4      0.067700
     41 H23         1.5100    2.7910   -3.6240 h1        1 HY4      0.074700
     42 H24         1.0090    3.7400   -5.1160 h1        1 HY4      0.074700
     43 H25         3.6050    4.1890   -3.4720 hc        1 HY4      0.036700
     44 H26         3.1010    5.1420   -4.9200 hc        1 HY4      0.036700
     45 H27         3.5830    2.0810   -4.8510 hc        1 HY4      0.043700
     46 H28         3.1010    3.0380   -6.3060 hc        1 HY4      0.043700
     47 H29         5.5590    2.6190   -6.2870 hc        1 HY4      0.023367
     48 H30         5.7040    3.4220   -4.6700 hc        1 HY4      0.023367
     49 H31         5.2200    4.3900   -6.1200 hc        1 HY4      0.023367
     50 O14         1.1110    1.2150   -2.1280 o         1 HY4     -0.868000
@<TRIPOS>BOND
     1    1    2 1   
     2    2    3 1   
     3    2    6 1   
     4    2   50 1   
     5    3    4 1   
     6    3   20 1   
     7    3   21 1   
     8    4    5 1   
     9    4   22 1   
    10    4   23 1   
    11    5   24 1   
    12    5   25 1   
    13    5   26 1   
    14    6    7 1   
    15    7    8 1   
    16    7   27 1   
    17    7   28 1   
    18    8    9 1   
    19    8   14 1   
    20    8   29 1   
    21    9   10 1   
    22   10   11 1   
    23   10   30 1   
    24   10   31 1   
    25   11   12 1   
    26   11   32 1   
    27   11   33 1   
    28   12   13 1   
    29   12   34 1   
    30   12   35 1   
    31   13   36 1   
    32   13   37 1   
    33   13   38 1   
    34   14   15 1   
    35   14   39 1   
    36   14   40 1   
    37   15   16 1   
    38   16   17 1   
    39   16   41 1   
    40   16   42 1   
    41   17   18 1   
    42   17   43 1   
    43   17   44 1   
    44   18   19 1   
    45   18   45 1   
    46   18   46 1   
    47   19   47 1   
    48   19   48 1   
    49   19   49 1   
@<TRIPOS>SUBSTRUCTURE
     1 HY4         1 TEMP              0 ****  ****    0 ROOT
