@<TRIPOS>MOLECULE
HY7
   40    43     1     0     0
SMALL
bcc


@<TRIPOS>ATOM
      1 C5         -0.4500   -0.5150    1.1800 c3        1 HY7      0.167300
      2 C6          0.4980   -1.1710    0.1580 c3        1 HY7      0.167800
      3 N3          1.8890   -0.7830    0.3450 n3        1 HY7     -0.733600
      4 C7          2.7690   -1.3970   -0.6220 c3        1 HY7      0.157100
      5 C8          2.0510    0.6620    0.4080 c3        1 HY7      0.167800
      6 C9          1.1080    1.3230    1.4310 c3        1 HY7      0.167300
      7 N2         -0.2840    0.9310    1.2500 n3        1 HY7     -0.748600
      8 C4         -1.1670    1.5360    2.2340 c3        1 HY7      0.129500
      9 C3         -1.3970    3.0340    1.9680 cc        1 HY7      0.479900
     10 N4         -1.3230    3.8690    3.0080 nd        1 HY7     -0.594300
     11 C10        -1.5940    5.1890    2.7240 cd        1 HY7      0.175400
     12 C11        -1.6180    6.3720    3.5720 ca        1 HY7     -0.102800
     13 C12        -1.3920    6.6210    4.9210 ca        1 HY7     -0.028000
     14 C13        -1.5150    7.9370    5.3750 ca        1 HY7     -0.057900
     15 BR1        -1.2200    8.3180    7.1850 br        1 HY7     -0.080100
     16 C14        -1.8560    8.9870    4.5020 ca        1 HY7     -0.072000
     17 C15        -2.0870    8.7630    3.1470 ca        1 HY7     -0.129000
     18 C16        -1.9640    7.4520    2.6980 ca        1 HY7      0.094100
     19 O2         -2.1540    7.0180    1.3810 os        1 HY7     -0.142200
     20 C1         -1.9220    5.6400    1.4300 cc        1 HY7     -0.108100
     21 C2         -1.9940    4.7420    0.2930 c         1 HY7      0.725700
     22 O1         -2.2590    5.0180   -0.8860 o         1 HY7     -0.598500
     23 N1         -1.7170    3.4030    0.6610 n         1 HY7     -0.463400
     24 H51C       -0.2900   -0.9990    2.1870 h1        1 HY7      0.043450
     25 H52C       -1.5060   -0.7290    0.8550 h1        1 HY7      0.043450
     26 H61C        0.1320   -0.9290   -0.8820 h1        1 HY7      0.040950
     27 H62C        0.4310   -2.2870    0.2980 h1        1 HY7      0.040950
     28 H71C        2.6560   -2.5110   -0.5570 h1        1 HY7      0.034700
     29 H72C        2.5620   -1.0780   -1.6810 h1        1 HY7      0.034700
     30 H73C        3.8280   -1.1260   -0.3680 h1        1 HY7      0.034700
     31 H81C        1.8900    1.1470   -0.5990 h1        1 HY7      0.040950
     32 H82C        3.1080    0.8760    0.7300 h1        1 HY7      0.040950
     33 H91C        1.1700    2.4390    1.2940 h1        1 HY7      0.043450
     34 H92C        1.4740    1.0800    2.4720 h1        1 HY7      0.043450
     35 H41C       -0.7800    1.4130    3.2880 h1        1 HY7      0.072700
     36 H42C       -2.1790    1.0410    2.1750 h1        1 HY7      0.072700
     37 H1         -1.7050    2.7130   -0.0610 hn        1 HY7      0.355500
     38 H12        -1.1260    5.7970    5.6010 ha        1 HY7      0.167000
     39 H14        -1.9450   10.0140    4.8920 ha        1 HY7      0.154000
     40 H15        -2.3540    9.5790    2.4620 ha        1 HY7      0.163000
@<TRIPOS>BOND
     1    1    2 1   
     2    1    7 1   
     3    1   24 1   
     4    1   25 1   
     5    2    3 1   
     6    2   26 1   
     7    2   27 1   
     8    3    4 1   
     9    3    5 1   
    10    4   28 1   
    11    4   29 1   
    12    4   30 1   
    13    5    6 1   
    14    5   31 1   
    15    5   32 1   
    16    6    7 1   
    17    6   33 1   
    18    6   34 1   
    19    7    8 1   
    20    8    9 1   
    21    8   35 1   
    22    8   36 1   
    23    9   10 2   
    24    9   23 1   
    25   10   11 1   
    26   11   12 1   
    27   11   20 2   
    28   12   13 ar  
    29   12   18 ar  
    30   13   14 ar  
    31   13   38 1   
    32   14   15 1   
    33   14   16 ar  
    34   16   17 ar  
    35   16   39 1   
    36   17   18 ar  
    37   17   40 1   
    38   18   19 1   
    39   19   20 1   
    40   20   21 1   
    41   21   22 2   
    42   21   23 1   
    43   23   37 1   
@<TRIPOS>SUBSTRUCTURE
     1 HY7         1 TEMP              0 ****  ****    0 ROOT
