@<TRIPOS>MOLECULE
molecule
   19    18     1     0     0
SMALL
bcc


@<TRIPOS>ATOM
      1 C1           0.0000     0.0000     0.0000 c2         1 HYA       0.557600
      2 C2           1.5070     0.0000     0.0000 c3         1 HYA       0.126800
      3 C3           2.0170     0.0000     1.4430 c3         1 HYA       0.162100
      4 C4           3.5420     0.1260     1.4450 c3         1 HYA       0.115400
      5 N           -0.6400    -0.9080    -0.6360 n2         1 HYA      -0.509200
      6 O1          -0.6760     0.9600     0.6720 oh         1 HYA      -0.597600
      7 O2           1.9840     1.1670    -0.6730 oh         1 HYA      -0.576800
      8 O3           1.4470     1.1040     2.1490 oh         1 HYA      -0.570800
      9 O4           4.0280     0.0080     2.7840 oh         1 HYA      -0.613800
     10 O           -2.0570    -0.9080    -0.6360 oh         1 HYA      -0.374500
     11 H2           1.8680    -0.8840    -0.5110 h1         1 HYA       0.062700
     12 H3           1.7300    -0.9260     1.9270 h1         1 HYA       0.052700
     13 H41          3.8250     1.0900     1.0410 h1         1 HYA       0.037200
     14 H42          3.9700    -0.6610     0.8350 h1         1 HYA       0.037200
     15 HO1         -1.1340     1.5100     0.0580 ho         1 HYA       0.437000
     16 HO2          2.0760     0.9830    -1.5940 ho         1 HYA       0.404000
     17 HO3          1.3120     0.8640     3.0510 ho         1 HYA       0.412000
     18 HO4          4.9570    -0.1530     2.7680 ho         1 HYA       0.406000
     19 HO          -2.3720    -1.6660    -1.0990 ho         1 HYA       0.429000
@<TRIPOS>BOND
     1     1     2 1
     2     1     5 2
     3     1     6 1
     4     2     3 1
     5     2     7 1
     6     2    11 1
     7     3     4 1
     8     3     8 1
     9     3    12 1
    10     4     9 1
    11     4    13 1
    12     4    14 1
    13     5    10 1
    14     6    15 1
    15     7    16 1
    16     8    17 1
    17     9    18 1
    18    10    19 1
@<TRIPOS>SUBSTRUCTURE
     1 HYA         1 TEMP              0 ****  ****    0 ROOT
