@<TRIPOS>MOLECULE
HYB
   82    84     1     0     0
SMALL
bcc


@<TRIPOS>ATOM
      1 S1           0.0000     0.0000     0.0000 s6         1 HYB       0.808000
      2 O2           1.4210     0.0000     0.0000 o          1 HYB      -0.576300
      3 O3          -0.7010     0.0000     1.2360 o          1 HYB      -0.576300
      4 C4           2.0680     3.4350     4.0710 ca         1 HYB      -0.097000
      5 C5           2.1090     2.2050     3.4880 ca         1 HYB      -0.090000
      6 C6           1.8140     2.0420     2.1360 ca         1 HYB      -0.112000
      7 C7           1.4770     3.1080     1.3590 ca         1 HYB      -0.084300
      8 C8           1.4290     4.3940     1.9250 ca         1 HYB      -0.024000
      9 C9           1.7250     4.5590     3.3000 ca         1 HYB      -0.037000
     10 C10          1.6730     5.8440     3.8680 ca         1 HYB      -0.092000
     11 C11          1.3350     6.9090     3.0910 ca         1 HYB      -0.107000
     12 C12          1.0400     6.7460     1.7390 ca         1 HYB      -0.103000
     13 C13          1.0800     5.5170     1.1560 ca         1 HYB      -0.124000
     14 C15         -7.2770     5.8840    -2.5600 c3         1 HYB       0.202400
     15 N16         -4.9000     6.2870    -2.1500 ns         1 HYB      -0.160900
     16 C17         -6.2500     6.5710    -1.6580 c3         1 HYB       0.011700
     17 C18         -6.4900     8.0820    -1.6710 c3         1 HYB       0.017900
     18 C19         -5.4790     8.7590    -0.7840 ca         1 HYB      -0.099300
     19 C20         -4.2720     9.1800    -1.3070 ca         1 HYB      -0.100000
     20 C21         -3.3440     9.8010    -0.4930 ca         1 HYB      -0.093500
     21 C22         -3.6230    10.0020     0.8460 ca         1 HYB      -0.098000
     22 C23         -4.8300     9.5810     1.3700 ca         1 HYB      -0.093500
     23 C24         -5.7610     8.9640     0.5540 ca         1 HYB      -0.100000
     24 N25         -2.2410     3.8670    -1.3480 ns         1 HYB      -0.164900
     25 C26         -2.8030     4.9750    -2.1220 c3         1 HYB      -0.057300
     26 C27         -4.2330     5.2050    -1.7050 c          1 HYB       0.570100
     27 O28         -4.7830     4.4160    -0.9660 o          1 HYB      -0.667100
     28 C29         -2.7570     4.6320    -3.6130 c3         1 HYB      -0.060700
     29 C30         -1.2990     4.5520    -4.0720 c3         1 HYB      -0.009600
     30 C31         -3.4400     3.2830    -3.8470 c3         1 HYB      -0.009600
     31 C32         -0.9230     3.8410    -1.0700 c          1 HYB       0.579100
     32 O33         -0.2030     4.7340    -1.4610 o          1 HYB      -0.657100
     33 C34         -0.3430     2.7000    -0.2730 c3         1 HYB      -0.088700
     34 C35          1.1620     2.9110    -0.1010 c3         1 HYB      -0.032100
     35 C36         -0.5910     1.3830    -1.0130 c3         1 HYB      -0.024600
     36 C37         -0.2020    -2.7050    -0.3490 c3         1 HYB       0.025233
     37 C38         -0.5910    -1.3830    -1.0140 c3         1 HYB      -0.044200
     38 C39         -2.1130    -1.3060    -1.1450 c3         1 HYB       0.025233
     39 C40          0.0450    -1.3050    -2.4030 c3         1 HYB       0.025233
     40 H4           2.3000     3.5470     5.1230 ha         1 HYB       0.102000
     41 H5           2.3750     1.3410     4.0840 ha         1 HYB       0.099000
     42 H6           1.8540     1.0530     1.6960 ha         1 HYB       0.145000
     43 H10          1.8990     5.9850     4.9180 ha         1 HYB       0.102000
     44 H11          1.2950     7.8980     3.5300 ha         1 HYB       0.096000
     45 H12          0.7730     7.6100     1.1430 ha         1 HYB       0.097000
     46 H13          0.8480     5.4060     0.1030 ha         1 HYB       0.153000
     47 HO4         -7.9320     6.1900    -4.3780 ho         1 HYB       0.396000
     48 H152        -8.2760     6.0940    -2.1950 h1         1 HYB       0.001700
     49 HN6         -4.4820     6.8850    -2.8360 hn         1 HYB       0.186500
     50 H17         -6.3500     6.1980    -0.6460 h1         1 HYB       0.066700
     51 H181        -6.3900     8.4550    -2.6830 hc         1 HYB       0.032700
     52 H182        -7.4880     8.2920    -1.3060 hc         1 HYB       0.032700
     53 H20         -4.0520     9.0240    -2.3560 ha         1 HYB       0.104000
     54 H21         -2.3980    10.1310    -0.9040 ha         1 HYB       0.104000
     55 H22         -2.8950    10.4870     1.4840 ha         1 HYB       0.105000
     56 H23         -5.0500     9.7400     2.4190 ha         1 HYB       0.104000
     57 H24         -6.7070     8.6340     0.9660 ha         1 HYB       0.104000
     58 HN5         -2.8450     3.1630    -0.9710 hn         1 HYB       0.201500
     59 H26         -2.2250     5.8730    -1.9400 h1         1 HYB       0.072700
     60 H29         -3.2720     5.4010    -4.1760 hc         1 HYB       0.030700
     61 H301        -0.7530     5.4060    -3.6890 hc         1 HYB       0.012533
     62 H302        -1.2610     4.5550    -5.1550 hc         1 HYB       0.012533
     63 H303        -0.8520     3.6390    -3.6970 hc         1 HYB       0.012533
     64 H311        -4.1010     3.3570    -4.7020 hc         1 HYB       0.012533
     65 H312        -4.0140     3.0110    -2.9690 hc         1 HYB       0.012533
     66 H313        -2.6890     2.5260    -4.0360 hc         1 HYB       0.012533
     67 H34         -0.8160     2.6620     0.7010 hc         1 HYB       0.071700
     68 H351         1.6930     2.0430    -0.4710 hc         1 HYB       0.067700
     69 H352         1.4700     3.7870    -0.6590 hc         1 HYB       0.067700
     70 H361        -0.0590     1.3930    -1.9570 h1         1 HYB       0.074700
     71 H362        -1.6520     1.2680    -1.1980 h1         1 HYB       0.074700
     72 H371        -0.5600    -3.5310    -0.9520 hc         1 HYB       0.016700
     73 H372         0.8760    -2.7620    -0.2620 hc         1 HYB       0.016700
     74 H373        -0.6480    -2.7570     0.6370 hc         1 HYB       0.016700
     75 H391        -2.5360    -0.9360    -0.2190 hc         1 HYB       0.016700
     76 H392        -2.5080    -2.2920    -1.3540 hc         1 HYB       0.016700
     77 H393        -2.3720    -0.6340    -1.9540 hc         1 HYB       0.016700
     78 H401         1.0990    -1.0720    -2.3050 hc         1 HYB       0.016700
     79 H402        -0.4440    -0.5310    -2.9810 hc         1 HYB       0.016700
     80 H403        -0.0680    -2.2580    -2.9060 hc         1 HYB       0.016700
     81 H151        -7.1070     4.8140    -2.5510 h1         1 HYB       0.001700
     82 O14         -7.1440     6.3760    -3.8940 oh         1 HYB      -0.601800
@<TRIPOS>BOND
     1     1     2 2   
     2     1     3 2   
     3     1    35 1   
     4     1    37 1   
     5     4     5 ar  
     6     4     9 ar  
     7     4    40 1   
     8     5     6 ar  
     9     5    41 1   
    10     6     7 ar  
    11     6    42 1   
    12     7     8 ar  
    13     7    34 1   
    14     8     9 ar  
    15     8    13 ar  
    16     9    10 ar  
    17    10    11 ar  
    18    10    43 1   
    19    11    12 ar  
    20    11    44 1   
    21    12    13 ar  
    22    12    45 1   
    23    13    46 1   
    24    14    16 1   
    25    14    48 1   
    26    14    81 1   
    27    14    82 1   
    28    15    16 1   
    29    15    26 1   
    30    15    49 1   
    31    16    17 1   
    32    16    50 1   
    33    17    18 1   
    34    17    51 1   
    35    17    52 1   
    36    18    19 ar  
    37    18    23 ar  
    38    19    20 ar  
    39    19    53 1   
    40    20    21 ar  
    41    20    54 1   
    42    21    22 ar  
    43    21    55 1   
    44    22    23 ar  
    45    22    56 1   
    46    23    57 1   
    47    24    25 1   
    48    24    31 1   
    49    24    58 1   
    50    25    26 1   
    51    25    28 1   
    52    25    59 1   
    53    26    27 2   
    54    28    29 1   
    55    28    30 1   
    56    28    60 1   
    57    29    61 1   
    58    29    62 1   
    59    29    63 1   
    60    30    64 1   
    61    30    65 1   
    62    30    66 1   
    63    31    32 2   
    64    31    33 1   
    65    33    34 1   
    66    33    35 1   
    67    33    67 1   
    68    34    68 1   
    69    34    69 1   
    70    35    70 1   
    71    35    71 1   
    72    36    37 1   
    73    36    72 1   
    74    36    73 1   
    75    36    74 1   
    76    37    38 1   
    77    37    39 1   
    78    38    75 1   
    79    38    76 1   
    80    38    77 1   
    81    39    78 1   
    82    39    79 1   
    83    39    80 1   
    84    47    82 1   
@<TRIPOS>SUBSTRUCTURE
     1 HYB         1 TEMP              0 ****  ****    0 ROOT
