@<TRIPOS>MOLECULE
HYD
    2     1     1     0     0
SMALL
bcc


@<TRIPOS>ATOM
      1 O          -0.0010   -0.0000    0.0000 o         1 HYD     -1.020000
      2 H           0.9440    0.0000   -0.0000 ho        1 HYD      0.020000
@<TRIPOS>BOND
     1    1    2 1   
@<TRIPOS>SUBSTRUCTURE
     1 HYD         1 TEMP              0 ****  ****    0 ROOT
