@<TRIPOS>MOLECULE
molecule
   44    45     1     0     0
SMALL
bcc


@<TRIPOS>ATOM
      1 C1           0.0000     0.0000     0.0000 c3         1 HYE       0.127400
      2 C2           1.5300     0.0000     0.0000 c3         1 HYE      -0.055400
      3 C3           2.0400     0.0000     1.4430 c3         1 HYE      -0.147700
      4 C4           3.5810     0.1250     1.4720 c3         1 HYE       0.159800
      5 C6           4.0080     1.5710     1.7320 c3         1 HYE      -0.127100
      6 O21         -0.4760     0.0000    -1.3480 oh         1 HYE      -0.616800
      7 C19          1.7640    -1.3330     2.1030 c          1 HYE       0.723500
      8 O20          0.7150    -1.9390     2.0330 o          1 HYE      -0.628500
      9 N18          2.8500    -1.7500     2.7760 ns         1 HYE      -0.567900
     10 C7           3.9480    -0.7820     2.6680 c3         1 HYE      -0.015600
     11 C16          5.2480    -1.4960     2.4000 c          1 HYE       0.577900
     12 O17          6.1890    -1.3340     3.1380 o          1 HYE      -0.516100
     13 C8           4.0520     0.0470     3.9490 c3         1 HYE       0.152100
     14 O15          2.8300     0.7570     4.1580 oh         1 HYE      -0.599800
     15 C9           4.3120    -0.8820     5.1360 c3         1 HYE      -0.060500
     16 C14          4.7560    -0.0510     6.3430 c3         1 HYE      -0.073400
     17 C13          4.7580    -0.9560     7.5810 c3         1 HYE      -0.076400
     18 C12          3.3130    -1.3420     7.9030 c3         1 HYE      -0.047200
     19 C11          2.6240    -1.8410     6.6660 c2         1 HYE      -0.163200
     20 C10          3.0570    -1.6370     5.4620 c2         1 HYE      -0.177200
     21 O5           4.1570    -0.3650     0.2600 oh         1 HYE      -0.592800
     22 H1          -0.3610     0.8840     0.5110 h1         1 HYE       0.036700
     23 H1A         -0.3610    -0.8850     0.5100 h1         1 HYE       0.036700
     24 H2           1.8910     0.8840    -0.5110 hc         1 HYE       0.062200
     25 H2A          1.8910    -0.8840    -0.5110 hc         1 HYE       0.062200
     26 H3           1.5860     0.8030     2.0110 hc         1 HYE       0.101700
     27 H6           5.0280     1.5870     2.0960 hc         1 HYE       0.054700
     28 H6A          3.3530     2.0140     2.4730 hc         1 HYE       0.054700
     29 H6B          3.9450     2.1370     0.8100 hc         1 HYE       0.054700
     30 HO21        -1.4110     0.1230    -1.3510 ho         1 HYE       0.402000
     31 HN18         2.9030    -2.6100     3.2840 hn         1 HYE       0.350500
     32 H16          5.3250    -2.1860     1.5680 h4         1 HYE       0.031200
     33 H8           4.8690     0.7530     3.8570 h1         1 HYE       0.051700
     34 HO15         3.0120     1.5760     4.5870 ho         1 HYE       0.405000
     35 H9           5.0950    -1.5860     4.8820 hc         1 HYE       0.081700
     36 H14          5.7540     0.3340     6.1730 hc         1 HYE       0.041700
     37 H14A         4.0640     0.7690     6.4940 hc         1 HYE       0.041700
     38 H13          5.1870    -0.4220     8.4210 hc         1 HYE       0.045200
     39 H13A         5.3360    -1.8490     7.3770 hc         1 HYE       0.045200
     40 H12          2.7860    -0.4740     8.2800 hc         1 HYE       0.049200
     41 H12A         3.3100    -2.1230     8.6530 hc         1 HYE       0.049200
     42 H11          1.7090    -2.4060     6.7870 ha         1 HYE       0.121000
     43 H10          2.4770    -2.0360     4.6400 ha         1 HYE       0.135000
     44 HO5          4.8130     0.2410    -0.0440 ho         1 HYE       0.412000
@<TRIPOS>BOND
     1     1     2 1
     2     1     6 1
     3     2     3 1
     4     3     4 1
     5     3     7 1
     6     4     5 1
     7     4    10 1
     8     4    21 1
     9     7     8 2
    10     7     9 1
    11     9    10 1
    12    10    11 1
    13    10    13 1
    14    11    12 2
    15    13    14 1
    16    13    15 1
    17    15    16 1
    18    15    20 1
    19    16    17 1
    20    17    18 1
    21    18    19 1
    22    19    20 2
    23     1    22 1
    24     1    23 1
    25     2    24 1
    26     2    25 1
    27     3    26 1
    28     5    27 1
    29     5    28 1
    30     5    29 1
    31     6    30 1
    32     9    31 1
    33    11    32 1
    34    13    33 1
    35    14    34 1
    36    15    35 1
    37    16    36 1
    38    16    37 1
    39    17    38 1
    40    17    39 1
    41    18    40 1
    42    18    41 1
    43    19    42 1
    44    20    43 1
    45    21    44 1
@<TRIPOS>SUBSTRUCTURE
     1 HYE         1 TEMP              0 ****  ****    0 ROOT
