@<TRIPOS>MOLECULE
HYF
   91    90     1     0     0
SMALL
bcc


@<TRIPOS>ATOM
      1 C1         -0.9490   -1.9590    0.4600 c2        1 HYF     -0.068000
      2 C2          3.5960   -4.6550   -2.5950 c3        1 HYF     -0.184000
      3 C3          3.8640   -3.8300   -0.2350 c3        1 HYF     -0.184000
      4 C4          1.9420    6.1500   -5.3000 c3        1 HYF     -0.286000
      5 C5          4.7760    4.2460   -4.6910 c3        1 HYF     -0.298000
      6 C6          4.3820    5.6120   -4.3790 c1        1 HYF     -0.024000
      7 C7          4.0740    3.2050   -3.8510 c2        1 HYF      0.292000
      8 O8          2.8480    3.1570   -3.7830 o         1 HYF     -0.263000
      9 C10         3.9770   -3.5480   -1.6860 c2        1 HYF     -0.111000
     10 C11         4.7850   -1.2400   -1.2670 c3        1 HYF     -0.122000
     11 C12         3.4500    0.2620   -3.5960 c3        1 HYF     -0.223000
     12 C13        10.8720    2.3070   -6.2320 c3        1 HYF     -0.206500
     13 C14        10.0850   -0.0060   -6.7230 c3        1 HYF     -0.206500
     14 C15         9.6560    1.4050   -6.3810 c3        1 HYF     -0.163000
     15 C16         8.7740    1.5740   -5.2320 c1        1 HYF     -0.048000
     16 C17         8.1440    0.4300   -4.5900 c3        1 HYF     -0.196000
     17 C18         6.0020    1.6560   -4.1740 c2        1 HYF      0.270000
     18 O19         5.8490    1.7730   -5.3900 o         1 HYF     -0.278000
     19 O21         4.9800    3.8530   -1.4400 oh        1 HYF     -0.225000
     20 C22         9.3240    3.4790    2.4140 c3        1 HYF     -0.208000
     21 C23         8.9860    5.4930    0.9940 c3        1 HYF     -0.208000
     22 C24         9.4170    4.0410    1.0060 c3        1 HYF     -0.087000
     23 C25         8.6580    3.1750    0.0630 c2        1 HYF     -0.106000
     24 C26         7.7880    3.6060   -0.8580 c2        1 HYF     -0.159000
     25 C27         5.0040    2.2000   -3.1540 c3        1 HYF     -0.112000
     26 C28         5.7710    2.9470   -2.0860 c2        1 HYF      0.127000
     27 C29         7.0880    2.7420   -1.8000 c2        1 HYF     -0.243000
     28 C30         7.8280    1.6400   -2.4340 c2        1 HYF      0.319000
     29 C31         7.1170    0.8600   -3.5380 c3        1 HYF     -0.124000
     30 C32         6.4460   -0.3740   -2.9210 c3        1 HYF     -0.148000
     31 C33         5.3480    0.0070   -1.9380 c3        1 HYF     -0.107000
     32 C34         4.2810    0.9590   -2.5300 c3        1 HYF     -0.008000
     33 C35         3.3610    1.4260   -1.4070 c3        1 HYF     -0.223000
     34 C36         0.8810   -1.3380   -1.2870 c2        1 HYF     -0.183000
     35 C37        -0.0290   -1.6490   -0.4170 c1        1 HYF     -0.164000
     36 C38        -2.0030   -2.9680    0.1770 c3        1 HYF     -0.172000
     37 C39        -1.0100   -1.3250    1.8020 c3        1 HYF     -0.172000
     38 H021        3.7180   -4.3710   -3.6690 hc        1 HYF      0.082333
     39 H022        2.5270   -4.9390   -2.4240 hc        1 HYF      0.082333
     40 H023        4.2320   -5.5530   -2.3920 hc        1 HYF      0.082333
     41 H031        3.1660   -3.1000    0.2490 hc        1 HYF      0.082333
     42 H032        3.4780   -4.8630   -0.0500 hc        1 HYF      0.082333
     43 H033        4.8630   -3.7320    0.2600 hc        1 HYF      0.082333
     44 H041        2.4240    6.1860   -6.3010 hc        1 HYF      0.076000
     45 H042        4.6230    3.9440   -5.7690 hc        1 HYF      0.146500
     46 H043        0.8390    6.2210   -5.4200 hc        1 HYF      0.076000
     47 H051        2.3000    7.0000   -4.6780 hc        1 HYF      0.076000
     48 H061        2.1830    5.1840   -4.7930 hc        1 HYF      0.076000
     49 H062        5.8940    4.2110   -4.5070 hc        1 HYF      0.146500
     50 H063        4.6290    6.3410   -5.1700 ha        1 HYF      0.037000
     51 H091        4.4650   -2.1890   -3.2410 ha        1 HYF      0.126000
     52 H111        3.8970   -0.9510   -0.6370 hc        1 HYF      0.094000
     53 H112        5.5710   -1.6170   -0.5510 hc        1 HYF      0.094000
     54 H121        4.0940   -0.0890   -4.4370 hc        1 HYF      0.091500
     55 H122        2.6720    0.9530   -4.0030 hc        1 HYF      0.091500
     56 H123        2.9230   -0.6160   -3.1460 hc        1 HYF      0.091500
     57 H131       10.5540    3.3440   -5.9680 hc        1 HYF      0.078167
     58 H132       11.5420    1.9220   -5.4260 hc        1 HYF      0.078167
     59 H133       11.4440    2.3310   -7.1900 hc        1 HYF      0.078167
     60 H141       10.6500   -0.4600   -5.8730 hc        1 HYF      0.078167
     61 H142       10.7470   -0.0050   -7.6230 hc        1 HYF      0.078167
     62 H143        9.1980   -0.6480   -6.9410 hc        1 HYF      0.078167
     63 H161        9.0270    1.8100   -7.2400 hc        1 HYF      0.143000
     64 H171        8.9480   -0.1760   -4.0750 hc        1 HYF      0.130500
     65 H172        7.6370   -0.2420   -5.3380 hc        1 HYF      0.130500
     66 H211        5.5060    4.3310   -0.7780 ho        1 HYF      0.238000
     67 H221        9.6760    2.4200    2.4360 hc        1 HYF      0.075500
     68 H222        8.2700    3.5120    2.7800 hc        1 HYF      0.075500
     69 H223        9.9590    4.0810    3.1080 hc        1 HYF      0.075500
     70 H231        9.5780    6.0720    1.7440 hc        1 HYF      0.075500
     71 H232        7.9040    5.5870    1.2520 hc        1 HYF      0.075500
     72 H233        9.1550    5.9450   -0.0130 hc        1 HYF      0.075500
     73 H251       10.5000    3.9970    0.6820 hc        1 HYF      0.103000
     74 H261        7.5680    4.6830   -0.9710 ha        1 HYF      0.120000
     75 H262        8.8910    2.0980    0.1520 ha        1 HYF      0.141000
     76 H321        7.2240   -0.9800   -2.3870 hc        1 HYF      0.103000
     77 H322        5.8450    0.5940   -1.1050 hc        1 HYF      0.095000
     78 H331        6.0340   -1.0030   -3.7520 hc        1 HYF      0.103000
     79 H351        2.6470    0.6130   -1.1270 hc        1 HYF      0.091500
     80 H352        1.8480   -1.8660   -1.3470 ha        1 HYF      0.133500
     81 H361        2.7640    2.3140   -1.7310 hc        1 HYF      0.091500
     82 H362        3.9540    1.7170   -0.5070 hc        1 HYF      0.091500
     83 H371        0.7430   -0.5280   -2.0210 ha        1 HYF      0.133500
     84 H381       -3.0120   -2.4930    0.2540 hc        1 HYF      0.082167
     85 H382       -1.8920   -3.4040   -0.8450 hc        1 HYF      0.082167
     86 H383       -1.9460   -3.7970    0.9260 hc        1 HYF      0.082167
     87 H391       -1.9910   -0.8040    1.9310 hc        1 HYF      0.082167
     88 H392       -0.9200   -2.1080    2.5960 hc        1 HYF      0.082167
     89 H393       -0.1900   -0.5800    1.9430 hc        1 HYF      0.082167
     90 C9          4.3980   -2.3600   -2.1550 c2        1 HYF     -0.185000
     91 O20         8.9560    1.2870   -2.0710 o         1 HYF     -0.297000
@<TRIPOS>BOND
     1    1   35 1   
     2    1   36 1   
     3    1   37 1   
     4    2    9 1   
     5    2   38 1   
     6    2   39 1   
     7    2   40 1   
     8    3    9 1   
     9    3   41 1   
    10    3   42 1   
    11    3   43 1   
    12    4   44 1   
    13    4   46 1   
    14    4   47 1   
    15    4   48 1   
    16    5    6 1   
    17    5    7 1   
    18    5   45 1   
    19    5   49 1   
    20    6   50 1   
    21    7    8 1   
    22    7   25 1   
    23    9   90 1   
    24   10   31 1   
    25   10   52 1   
    26   10   53 1   
    27   10   90 1   
    28   11   32 1   
    29   11   54 1   
    30   11   55 1   
    31   11   56 1   
    32   12   14 1   
    33   12   57 1   
    34   12   58 1   
    35   12   59 1   
    36   13   14 1   
    37   13   60 1   
    38   13   61 1   
    39   13   62 1   
    40   14   15 1   
    41   14   63 1   
    42   15   16 1   
    43   16   29 1   
    44   16   64 1   
    45   16   65 1   
    46   17   18 1   
    47   17   25 1   
    48   17   29 1   
    49   19   26 1   
    50   19   66 1   
    51   20   22 1   
    52   20   67 1   
    53   20   68 1   
    54   20   69 1   
    55   21   22 1   
    56   21   70 1   
    57   21   71 1   
    58   21   72 1   
    59   22   23 1   
    60   22   73 1   
    61   23   24 1   
    62   23   75 1   
    63   24   27 1   
    64   24   74 1   
    65   25   26 1   
    66   25   32 1   
    67   26   27 1   
    68   27   28 1   
    69   28   29 1   
    70   28   91 1   
    71   29   30 1   
    72   30   31 1   
    73   30   76 1   
    74   30   78 1   
    75   31   32 1   
    76   31   77 1   
    77   32   33 1   
    78   33   79 1   
    79   33   81 1   
    80   33   82 1   
    81   34   35 1   
    82   34   80 1   
    83   34   83 1   
    84   36   84 1   
    85   36   85 1   
    86   36   86 1   
    87   37   87 1   
    88   37   88 1   
    89   37   89 1   
    90   51   90 1   
@<TRIPOS>SUBSTRUCTURE
     1 HYF         1 TEMP              0 ****  ****    0 ROOT
