@<TRIPOS>MOLECULE
molecule
   91    92     1     0     0
SMALL
bcc


@<TRIPOS>ATOM
      1 C1           0.0000     0.0000     0.0000 c2         1 HYF      -0.125400
      2 C2           6.1330    -3.2000     0.5610 c3         1 HYF      -0.051900
      3 C3           7.4510    -2.2550    -1.4840 c3         1 HYF      -0.051900
      4 C4           3.2540     5.4560    -4.5900 c3         1 HYF      -0.080100
      5 C5           4.2510     4.6260    -3.7790 c3         1 HYF      -0.167700
      6 C6           4.6190     5.3790    -2.4990 c3         1 HYF      -0.080100
      7 C7           3.6270     3.3020    -3.4220 c          1 HYF       0.590100
      8 O8           2.4330     3.2180    -3.2690 o          1 HYF      -0.507100
      9 C10          6.3180    -2.1430    -0.4970 c2         1 HYF      -0.123400
     10 C11          5.6350    -0.1060    -1.6580 c3         1 HYF      -0.102200
     11 C12          2.6610     0.5950    -4.0470 c3         1 HYF      -0.092100
     12 C13          9.9130     2.7850    -6.3690 c3         1 HYF      -0.054400
     13 C14          9.7270     0.1830    -6.4210 c3         1 HYF      -0.054400
     14 C15          9.0800     1.5340    -6.2590 c2         1 HYF      -0.110400
     15 C16          7.7950     1.6210    -6.0230 c2         1 HYF      -0.197200
     16 C17          6.9990     0.3780    -5.7160 c3         1 HYF      -0.015200
     17 C18          5.2690     1.7770    -4.5290 c          1 HYF       0.608100
     18 O19          5.1460     2.4260    -5.5400 o          1 HYF      -0.495100
     19 O21          5.2070     3.0710    -1.1070 oh         1 HYF      -0.489100
     20 C22          6.9140     0.0390     2.1790 c3         1 HYF      -0.332900
     21 C23          7.2900     2.5680     1.6570 c3         1 HYF      -0.332900
     22 C24          7.2580     1.1320     1.2010 c2         1 HYF      -0.090400
     23 C25          7.5280     0.8350    -0.0460 c2         1 HYF      -0.175200
     24 C26          7.6760     1.9330    -1.0670 c3         1 HYF       0.008000
     25 C27          4.4950     2.0810    -3.2530 c3         1 HYF      -0.255800
     26 C28          5.5130     2.2830    -2.1540 c2         1 HYF       0.133900
     27 C29          6.7180     1.6930    -2.2050 ce         1 HYF      -0.238400
     28 C30          7.1320     0.8660    -3.2550 c          1 HYF       0.617300
     29 C31          6.2110     0.5840    -4.4210 c3         1 HYF      -0.243000
     30 C32          5.3680    -0.6530    -4.0780 c3         1 HYF      -0.059400
     31 C33          4.6240    -0.4060    -2.7660 c3         1 HYF      -0.070700
     32 C34          3.6520     0.8450    -2.9080 c3         1 HYF      -0.037000
     33 C35          2.8880     1.0500    -1.5980 c3         1 HYF      -0.083400
     34 C36          2.0640    -0.2010    -1.2890 c3         1 HYF      -0.046200
     35 C37          1.3100     0.0000     0.0000 c2         1 HYF      -0.188200
     36 C38         -0.7530     0.0000     1.3050 c3         1 HYF      -0.053400
     37 C39         -0.7530     0.0010    -1.3050 c3         1 HYF      -0.053400
     38 H021         5.6080    -4.0480     0.1370 hc         1 HYF       0.040867
     39 H022         5.5550    -2.7930     1.3820 hc         1 HYF       0.040867
     40 H023         7.1010    -3.5210     0.9250 hc         1 HYF       0.040867
     41 H031         7.8500    -3.2620    -1.4620 hc         1 HYF       0.040867
     42 H032         7.0850    -2.0330    -2.4790 hc         1 HYF       0.040867
     43 H033         8.2300    -1.5510    -1.2200 hc         1 HYF       0.040867
     44 H041         3.7550     6.3270    -4.9960 hc         1 HYF       0.043867
     45 H042         2.8590     4.8560    -5.4010 hc         1 HYF       0.043867
     46 H043         2.4420     5.7740    -3.9470 hc         1 HYF       0.043867
     47 H051         5.1440     4.4570    -4.3680 hc         1 HYF       0.079700
     48 H061         5.6140     5.0900    -2.1840 hc         1 HYF       0.043867
     49 H062         4.5940     6.4450    -2.6870 hc         1 HYF       0.043867
     50 H063         3.9080     5.1340    -1.7190 hc         1 HYF       0.043867
     51 H091         4.6790    -1.0470     0.1520 ha         1 HYF       0.131000
     52 H111         5.4510     0.8830    -1.2590 hc         1 HYF       0.086200
     53 H112         6.6390    -0.1510    -2.0640 hc         1 HYF       0.086200
     54 H121         3.0850     0.9490    -4.9790 hc         1 HYF       0.047700
     55 H122         2.4590    -0.4660    -4.1220 hc         1 HYF       0.047700
     56 H123         1.7380     1.1250    -3.8450 hc         1 HYF       0.047700
     57 H131         9.3030     3.6470    -6.1280 hc         1 HYF       0.042200
     58 H132        10.7450     2.7270    -5.6780 hc         1 HYF       0.042200
     59 H133        10.2890     2.8800    -7.3800 hc         1 HYF       0.042200
     60 H141        10.7010     0.3010    -6.8790 hc         1 HYF       0.042200
     61 H142         9.1050    -0.4420    -7.0510 hc         1 HYF       0.042200
     62 H143         9.8390    -0.2830    -5.4490 hc         1 HYF       0.042200
     63 H161         7.3340     2.5940    -5.9090 ha         1 HYF       0.134000
     64 H171         7.6730    -0.4620    -5.6000 hc         1 HYF       0.064700
     65 H172         6.3120     0.1800    -6.5300 hc         1 HYF       0.064700
     66 H211         4.2760     3.0540    -0.9620 ho         1 HYF       0.435000
     67 H221         6.1580     0.7660     2.4480 hc         1 HYF       0.119533
     68 H222         6.9900    -0.0110     3.2580 hc         1 HYF       0.119533
     69 H223         7.9920     0.0480     2.2870 hc         1 HYF       0.119533
     70 H231         6.3790     3.0660     1.3470 hc         1 HYF       0.119533
     71 H232         8.1430     3.0690     1.2160 hc         1 HYF       0.119533
     72 H233         7.3710     2.6020     2.7370 hc         1 HYF       0.119533
     73 H251         7.5030    -0.1980    -0.3700 ha         1 HYF       0.171000
     74 H261         7.4570     2.8880    -0.6050 hc         1 HYF       0.067700
     75 H262         8.6910     1.9400    -1.4450 hc         1 HYF       0.067700
     76 H321         6.0170    -1.5130    -3.9690 hc         1 HYF       0.063700
     77 H322         4.6510    -0.8320    -4.8710 hc         1 HYF       0.063700
     78 H331         4.0450    -1.2850    -2.5080 hc         1 HYF       0.077700
     79 H351         3.5910     1.2270    -0.7940 hc         1 HYF       0.055700
     80 H352         2.2270     1.9030    -1.6950 hc         1 HYF       0.055700
     81 H361         1.3610    -0.3790    -2.0940 hc         1 HYF       0.055200
     82 H362         2.7250    -1.0540    -1.1910 hc         1 HYF       0.055200
     83 H371         1.8470     0.0010     0.9400 ha         1 HYF       0.123000
     84 H381        -1.4190    -0.8540     1.3380 hc         1 HYF       0.041700
     85 H382        -1.3310     0.9130     1.3890 hc         1 HYF       0.041700
     86 H383        -0.0500    -0.0590     2.1280 hc         1 HYF       0.041700
     87 H391        -0.4860     0.8820    -1.8760 hc         1 HYF       0.041700
     88 H392        -1.8180     0.0080    -1.1070 hc         1 HYF       0.041700
     89 H393        -0.4980    -0.8870    -1.8710 hc         1 HYF       0.041700
     90 C9           5.4930    -1.1270    -0.5580 c2         1 HYF      -0.170200
     91 O20          8.2410     0.3700    -3.2300 o          1 HYF      -0.539100
@<TRIPOS>BOND
     1     1    35 2
     2     1    36 1
     3     1    37 1
     4     2     9 1
     5     2    38 1
     6     2    39 1
     7     2    40 1
     8     3     9 1
     9     3    41 1
    10     3    42 1
    11     3    43 1
    12     4     5 1
    13     4    44 1
    14     4    45 1
    15     4    46 1
    16     5     6 1
    17     5     7 1
    18     5    47 1
    19     6    48 1
    20     6    49 1
    21     6    50 1
    22     7     8 2
    23     7    25 1
    24    90     9 2
    25    90    10 1
    26    90    51 1
    27    10    31 1
    28    10    52 1
    29    10    53 1
    30    11    32 1
    31    11    54 1
    32    11    55 1
    33    11    56 1
    34    12    14 1
    35    12    57 1
    36    12    58 1
    37    12    59 1
    38    13    14 1
    39    13    60 1
    40    13    61 1
    41    13    62 1
    42    14    15 2
    43    15    16 1
    44    15    63 1
    45    16    29 1
    46    16    64 1
    47    16    65 1
    48    17    18 2
    49    17    25 1
    50    17    29 1
    51    91    28 2
    52    19    26 1
    53    19    66 1
    54    20    22 1
    55    20    67 1
    56    20    68 1
    57    20    69 1
    58    21    22 1
    59    21    70 1
    60    21    71 1
    61    21    72 1
    62    22    23 2
    63    23    24 1
    64    23    73 1
    65    24    27 1
    66    24    74 1
    67    24    75 1
    68    25    26 1
    69    25    32 1
    70    26    27 2
    71    27    28 1
    72    28    29 1
    73    29    30 1
    74    30    31 1
    75    30    76 1
    76    30    77 1
    77    31    32 1
    78    31    78 1
    79    32    33 1
    80    33    34 1
    81    33    79 1
    82    33    80 1
    83    34    35 1
    84    34    81 1
    85    34    82 1
    86    35    83 1
    87    36    84 1
    88    36    85 1
    89    36    86 1
    90    37    87 1
    91    37    88 1
    92    37    89 1
@<TRIPOS>SUBSTRUCTURE
     1 HYF         1 TEMP              0 ****  ****    0 ROOT
