@<TRIPOS>MOLECULE
HYH
   23    22     1     0     0
SMALL
bcc


@<TRIPOS>ATOM
      1 O1           0.0000     0.0000     0.0000 o          1 HYH      -0.367100
      2 C5           1.2130     0.0000     0.0000 c          1 HYH       0.261100
      3 N            1.8860     0.0050    -1.1670 nz         1 HYH       0.197600
      4 C4           1.9660     0.0000     1.3050 c3         1 HYH       0.133100
      5 O            1.0420    -0.1180     2.3890 oh         1 HYH      -0.513800
      6 C3           2.7490     1.3070     1.4420 c3         1 HYH      -0.035400
      7 C2           3.6110     1.2560     2.7050 c3         1 HYH      -0.022400
      8 C1           4.3950     2.5630     2.8410 c3         1 HYH      -0.024400
      9 C            5.2570     2.5110     4.1040 c3         1 HYH       0.009900
     10 H1           2.7700    -0.4480    -1.0450 hn         1 HYH       0.247800
     11 H2           2.0340     0.9500    -1.4630 hn         1 HYH       0.247800
     12 H3           2.6540    -0.8370     1.3240 h1         1 HYH       0.034700
     13 H4           0.9130    -1.0290     2.5940 ho         1 HYH       0.415000
     14 H5           3.3860     1.4400     0.5750 hc         1 HYH       0.023700
     15 H6           2.0570     2.1380     1.5110 hc         1 HYH       0.023700
     16 H7           4.3040     0.4250     2.6360 hc         1 HYH       0.031200
     17 H8           2.9750     1.1240     3.5710 hc         1 HYH       0.031200
     18 H9           5.0310     2.6950     1.9740 hc         1 HYH       0.015200
     19 H10          3.7020     3.3940     2.9100 hc         1 HYH       0.015200
     20 H11          5.9900     1.7200     4.0090 hc         1 HYH       0.010033
     21 H12          4.6260     2.3180     4.9640 hc         1 HYH       0.010033
     22 H13          5.7640     3.4600     4.2340 hc         1 HYH       0.010033
     23 HN3          1.3580    -0.4890    -1.8590 hn         1 HYH       0.247800
@<TRIPOS>BOND
     1     1     2 2   
     2     2     3 1   
     3     2     4 1   
     4     3    10 1   
     5     3    11 1   
     6     3    23 1   
     7     4     5 1   
     8     4     6 1   
     9     4    12 1   
    10     5    13 1   
    11     6     7 1   
    12     6    14 1   
    13     6    15 1   
    14     7     8 1   
    15     7    16 1   
    16     7    17 1   
    17     8     9 1   
    18     8    18 1   
    19     8    19 1   
    20     9    20 1   
    21     9    21 1   
    22     9    22 1   
@<TRIPOS>SUBSTRUCTURE
     1 HYH         1 TEMP              0 ****  ****    0 ROOT
