@<TRIPOS>MOLECULE
HYI
   34    33     1     0     0
SMALL
bcc


@<TRIPOS>ATOM
      1 O           4.6260   -3.4890    2.2430 o         1 HYI     -0.814300
      2 C           4.4670   -2.2610    2.5180 c         1 HYI      0.903600
      3 OXT         5.2960   -1.6050    3.2000 o         1 HYI     -0.814300
      4 CA          3.1730   -1.5610    2.0270 c3        1 HYI      0.004500
      5 N           2.7080   -2.2310    0.7660 n4        1 HYI     -0.833600
      6 CB          2.1150   -1.6440    3.1330 c3        1 HYI     -0.088400
      7 CG          2.5120   -0.7990    4.3230 c3        1 HYI     -0.044300
      8 SD          2.2500   -1.6300    5.8580 ss        1 HYI     -0.232200
      9 C5          3.8430   -2.2090    6.3320 c3        1 HYI     -0.088300
     10 C4          4.1860   -3.5750    5.7640 c3        1 HYI      0.117100
     11 O4          3.4330   -4.6190    6.3590 oh        1 HYI     -0.606800
     12 C3          5.6550   -3.9580    6.0710 c3        1 HYI      0.094100
     13 O3          5.9150   -5.3100    5.7480 oh        1 HYI     -0.620800
     14 C2          6.5930   -3.0970    5.2370 c         1 HYI      0.540100
     15 O2          7.0280   -1.9990    5.5370 o         1 HYI     -0.393100
     16 N1          7.0000   -3.6710    3.8950 n4        1 HYI     -0.441300
     17 O1          7.8090   -2.8440    3.2020 oh        1 HYI     -0.376300
     18 HA          3.3980   -0.4820    1.7880 hx        1 HYI      0.121700
     19 HN1A        2.9300   -3.2390    0.8450 hn        1 HYI      0.461800
     20 HN2         1.7040   -2.1050    0.6340 hn        1 HYI      0.461800
     21 HB1         1.9910   -2.7160    3.4470 hc        1 HYI      0.070200
     22 HB2         1.1220   -1.2900    2.7430 hc        1 HYI      0.070200
     23 HG1         1.8680    0.1180    4.3720 h1        1 HYI      0.108700
     24 HG2         3.5770   -0.4570    4.2400 h1        1 HYI      0.108700
     25 H51         3.8080   -2.2640    7.4530 h1        1 HYI      0.108700
     26 H52         4.6400   -1.4760    6.0440 h1        1 HYI      0.108700
     27 H4          4.0220   -3.5950    4.6460 h1        1 HYI      0.067700
     28 HO4         2.5120   -4.3210    6.4060 ho        1 HYI      0.446000
     29 H3          5.8920   -3.7680    7.1590 h1        1 HYI      0.116700
     30 HO3         5.2220   -5.8510    6.1620 ho        1 HYI      0.477000
     31 HN1         6.1290   -3.8880    3.3340 hn        1 HYI      0.504800
     32 HO1         7.3340   -1.9800    3.0870 ho        1 HYI      0.497000
     33 HN3         3.2140   -1.8480   -0.0350 hn        1 HYI      0.461800
     34 H12         7.5370   -4.5460    4.0500 hn        1 HYI      0.504800
@<TRIPOS>BOND
     1    1    2 1
     2    2    3 1
     3    2    4 1
     4    4    5 1
     5    4    6 1
     6    4   18 1
     7    5   19 1
     8    5   20 1
     9    5   33 1
    10    6    7 1
    11    6   21 1
    12    6   22 1
    13    7    8 1
    14    7   23 1
    15    7   24 1
    16    8    9 1
    17    9   10 1
    18    9   25 1
    19    9   26 1
    20   10   11 1
    21   10   12 1
    22   10   27 1
    23   11   28 1
    24   12   13 1
    25   12   14 1
    26   12   29 1
    27   13   30 1
    28   14   15 2
    29   14   16 1
    30   16   17 1
    31   16   31 1
    32   16   34 1
    33   17   32 1
@<TRIPOS>SUBSTRUCTURE
     1 HYI         1 TEMP              0 ****  ****    0 ROOT
