@<TRIPOS>MOLECULE
molecule
   30    32     1     0     0
SMALL
bcc


@<TRIPOS>ATOM
      1 CAI          0.0000     0.0000     0.0000 c3         1 HYM      -0.080200
      2 CAH          1.5320     0.0000     0.0000 c3         1 HYM       0.102000
      3 NAG          2.1070     0.0000     1.3360 ns         1 HYM      -0.574900
      4 CAF          2.2800     1.1610     2.0200 c          1 HYM       0.732100
      5 OAK          2.9980     1.2150     3.0010 o          1 HYM      -0.597500
      6 CAD          1.5680     2.3500     1.5310 cc         1 HYM      -0.122900
      7 NAC          1.9680     3.6370     1.3850 na         1 HYM      -0.081100
      8 CAA          0.9070     4.3810     0.9590 cc         1 HYM       0.007100
      9 ClA          0.9310     6.0920     0.6710 cl         1 HYM       0.000600
     10 CAB         -0.1730     3.5730     0.7970 cd         1 HYM      -0.025600
     11 ClB         -1.7550     4.0640     0.2790 cl         1 HYM      -0.056400
     12 CAE          0.2270     2.2690     1.1230 cd         1 HYM      -0.186800
     13 CAJ         -0.4990     0.9980     1.0270 cf         1 HYM       0.156600
     14 CAL         -1.5660     0.7280     1.8210 cc         1 HYM      -0.099200
     15 NAP         -2.1280     1.5480     2.8030 na         1 HYM      -0.686000
     16 CAM         -2.3930    -0.4960     1.8320 c          1 HYM       0.716700
     17 OAR         -2.2540    -1.4800     1.1250 o          1 HYM      -0.449100
     18 NAN         -3.3250    -0.3080     2.7770 nc         1 HYM      -0.655100
     19 CAO         -3.1790     0.8710     3.3410 cd         1 HYM       0.645100
     20 NAQ         -3.9810     1.3540     4.3380 nz         1 HYM      -0.727600
     21 HAI1        -0.3610     0.2820    -0.9820 hc         1 HYM       0.100700
     22 HAI2        -0.3610    -0.9890     0.2540 hc         1 HYM       0.100700
     23 HAH1         1.8780    -0.8820    -0.5250 h1         1 HYM       0.072700
     24 HAH2         1.8780     0.8820    -0.5250 h1         1 HYM       0.072700
     25 HAG          2.3790    -0.8660     1.7570 hn         1 HYM       0.348500
     26 HAC          2.8900     3.9850     1.5620 hn         1 HYM       0.341700
     27 HAP         -1.8160     2.4630     3.0630 hn         1 HYM       0.487800
     28 HAQ1        -4.4230     2.1980     4.0320 hn         1 HYM       0.484800
     29 HAQ2        -3.4260     1.5440     5.1500 hn         1 HYM       0.484800
     30 HAQ3        -4.6790     0.6740     4.5640 hn         1 HYM       0.484800
@<TRIPOS>BOND
     1     1     2 1
     2     1    13 1
     3     1    21 1
     4     1    22 1
     5     2     3 1
     6     2    23 1
     7     2    24 1
     8     3     4 1
     9     3    25 1
    10     4     5 2
    11     4     6 1
    12     6     7 1
    13     6    12 2
    14     7     8 1
    15     7    26 1
    16     8     9 1
    17     8    10 2
    18    10    11 1
    19    10    12 1
    20    12    13 1
    21    13    14 2
    22    14    15 1
    23    14    16 1
    24    15    19 1
    25    15    27 1
    26    16    17 2
    27    16    18 1
    28    18    19 2
    29    19    20 1
    30    20    28 1
    31    20    29 1
    32    30    20 1
@<TRIPOS>SUBSTRUCTURE
     1 HYM         1 TEMP              0 ****  ****    0 ROOT
