@<TRIPOS>MOLECULE
HYN
   11    11     1     0     0
SMALL
bcc


@<TRIPOS>ATOM
      1 O            0.0000     0.0000     0.0000 o          1 HYN      -0.612500
      2 C            1.2120     0.0000     0.0000 c          1 HYN       0.601500
      3 C1           2.1280     0.0000     1.2080 c3         1 HYN      -0.058000
      4 N            3.4780    -0.0010     0.6190 ns         1 HYN      -0.222900
      5 N1           2.0260    -0.0060    -1.0740 ns         1 HYN      -0.165500
      6 C2           3.3160    -0.0010    -0.7160 c          1 HYN       0.603500
      7 O1           4.2370    -0.0020    -1.5090 o          1 HYN      -0.692500
      8 H1           1.9980    -0.9540     1.7030 h1         1 HYN       0.056700
      9 H1A          1.9990     0.9550     1.7030 h1         1 HYN       0.056700
     10 HN           4.3470     0.0000     1.1160 hn         1 HYN       0.223500
     11 HN1          1.7060    -0.0070    -2.0230 hn         1 HYN       0.208500
@<TRIPOS>BOND
     1     1     2 2   
     2     2     3 1   
     3     2     5 1   
     4     3     4 1   
     5     3     8 1   
     6     3     9 1   
     7     4     6 1   
     8     4    10 1   
     9     5     6 1   
    10     5    11 1   
    11     6     7 2   
@<TRIPOS>SUBSTRUCTURE
     1 HYN         1 TEMP              0 ****  ****    0 ROOT
