@<TRIPOS>MOLECULE
molecule
   11    11     1     0     0
SMALL
bcc


@<TRIPOS>ATOM
      1 O            0.0000     0.0000     0.0000 o          1 HYN      -0.575500
      2 C            1.2120     0.0000     0.0000 c          1 HYN       0.686500
      3 C1           2.1280     0.0000     1.2080 c3         1 HYN      -0.002000
      4 N            3.4780    -0.0010     0.6190 ns         1 HYN      -0.609900
      5 N1           2.0260    -0.0060    -1.0740 ns         1 HYN      -0.586500
      6 C2           3.3160    -0.0010    -0.7160 c          1 HYN       0.808500
      7 O1           4.2370    -0.0020    -1.5090 o          1 HYN      -0.645500
      8 H1           1.9980    -0.9540     1.7030 h1         1 HYN       0.093700
      9 H1A          1.9990     0.9550     1.7030 h1         1 HYN       0.093700
     10 HN           4.3470     0.0000     1.1160 hn         1 HYN       0.371500
     11 HN1          1.7060    -0.0070    -2.0230 hn         1 HYN       0.365500
@<TRIPOS>BOND
     1     1     2 2
     2     2     3 1
     3     2     5 1
     4     3     4 1
     5     4     6 1
     6     5     6 1
     7     6     7 2
     8     3     8 1
     9     3     9 1
    10     4    10 1
    11     5    11 1
@<TRIPOS>SUBSTRUCTURE
     1 HYN         1 TEMP              0 ****  ****    0 ROOT
