@<TRIPOS>MOLECULE
HYQ
   44    48     1     0     0
SMALL
bcc


@<TRIPOS>ATOM
      1 C1           0.0000     0.0000     0.0000 c3         1 HYQ      -0.128700
      2 C4           1.5130     0.0000     0.0000 c          1 HYQ       0.626000
      3 O10          2.2160     0.0000    -0.9880 o          1 HYQ      -0.606500
      4 N9           1.9530     0.0000     1.2640 n          1 HYQ      -0.018600
      5 C14          3.3140     0.0000     1.5930 ca         1 HYQ      -0.022400
      6 C16          3.9880     1.1910     1.7560 ca         1 HYQ      -0.095000
      7 C19          5.3410     1.2030     2.0820 ca         1 HYQ       0.010000
      8 C20          6.0350     0.0430     2.2480 ca         1 HYQ      -0.412200
      9 N23          7.4730     0.0820     2.5950 no         1 HYQ       1.046200
     10 O26          8.2380    -0.7360     2.1170 o          1 HYQ      -0.444000
     11 O25          7.8920     0.9310     3.3610 o          1 HYQ      -0.444000
     12 C17          5.3850    -1.1930     2.0850 ca         1 HYQ       0.028000
     13 C21          6.0730    -2.4060     2.2570 ca         1 HYQ      -0.114000
     14 C24          5.4100    -3.5840     2.0970 ca         1 HYQ      -0.068000
     15 C22          4.0560    -3.6070     1.7710 ca         1 HYQ      -0.078000
     16 C18          3.3570    -2.4520     1.6020 ca         1 HYQ      -0.115000
     17 C15          4.0060    -1.2170     1.7590 ca         1 HYQ      -0.026000
     18 C6           0.9840    -0.0070     2.1890 c          1 HYQ       0.626000
     19 O13          1.1590    -0.0260     3.3880 o          1 HYQ      -0.606500
     20 C2          -0.3610    -0.0030     1.4980 c3         1 HYQ      -0.128700
     21 C5          -1.1030    -1.3230     1.8170 c3         1 HYQ      -0.018200
     22 C12         -2.3850    -1.3970     0.9840 c3         1 HYQ      -0.032650
     23 C8          -2.0290    -1.3700    -0.5030 c3         1 HYQ      -0.032650
     24 C3          -0.5100    -1.2810    -0.6630 c3         1 HYQ      -0.018200
     25 C7           0.1460    -2.4940    -0.0020 c3         1 HYQ      -0.032650
     26 C11         -0.2090    -2.5180     1.4870 c3         1 HYQ      -0.032650
     27 H1          -0.3910     0.8810    -0.4950 hc         1 HYQ       0.065700
     28 H16          3.4600     2.1280     1.6300 ha         1 HYQ       0.119000
     29 H19          5.8510     2.1510     2.2060 ha         1 HYQ       0.124000
     30 H21          7.1260    -2.4030     2.5110 ha         1 HYQ       0.149000
     31 H24          5.9440    -4.5180     2.2260 ha         1 HYQ       0.109000
     32 H22          3.5530    -4.5590     1.6490 ha         1 HYQ       0.106000
     33 H18          2.3040    -2.4850     1.3480 ha         1 HYQ       0.127000
     34 H2          -0.9490     0.8650     1.7700 hc         1 HYQ       0.065700
     35 H5          -1.3580    -1.3460     2.8700 hc         1 HYQ       0.044700
     36 H121        -2.9110    -2.3160     1.2120 hc         1 HYQ       0.023075
     37 H122        -3.0180    -0.5500     1.2190 hc         1 HYQ       0.023075
     38 H81         -2.3890    -2.2750    -0.9770 hc         1 HYQ       0.023075
     39 H82         -2.4920    -0.5090    -0.9690 hc         1 HYQ       0.023075
     40 H3          -0.2590    -1.2650    -1.7170 hc         1 HYQ       0.044700
     41 H71         -0.2140    -3.4010    -0.4730 hc         1 HYQ       0.023075
     42 H72          1.2210    -2.4310    -0.1150 hc         1 HYQ       0.023075
     43 H111         0.6990    -2.4630     2.0750 hc         1 HYQ       0.023075
     44 H112        -0.7340    -3.4360     1.7180 hc         1 HYQ       0.023075
@<TRIPOS>BOND
     1     1     2 1   
     2     1    20 1   
     3     1    24 1   
     4     1    27 1   
     5     2     3 2   
     6     2     4 1   
     7     4     5 1   
     8     4    18 1   
     9     5     6 ar  
    10     5    17 ar  
    11     6     7 ar  
    12     6    28 1   
    13     7     8 ar  
    14     7    29 1   
    15     8     9 1   
    16     8    12 ar  
    17     9    10 1   
    18     9    11 1   
    19    12    13 ar  
    20    12    17 ar  
    21    13    14 ar  
    22    13    30 1   
    23    14    15 ar  
    24    14    31 1   
    25    15    16 ar  
    26    15    32 1   
    27    16    17 ar  
    28    16    33 1   
    29    18    19 2   
    30    18    20 1   
    31    20    21 1   
    32    20    34 1   
    33    21    22 1   
    34    21    26 1   
    35    21    35 1   
    36    22    23 1   
    37    22    36 1   
    38    22    37 1   
    39    23    24 1   
    40    23    38 1   
    41    23    39 1   
    42    24    25 1   
    43    24    40 1   
    44    25    26 1   
    45    25    41 1   
    46    25    42 1   
    47    26    43 1   
    48    26    44 1   
@<TRIPOS>SUBSTRUCTURE
     1 HYQ         1 TEMP              0 ****  ****    0 ROOT
