@<TRIPOS>MOLECULE
HYS
   49    50     1     0     0
SMALL
bcc


@<TRIPOS>ATOM
      1 C01          0.0000     0.0000     0.0000 ca         1 HYS      -0.036600
      2 C02          1.3840     0.0000     0.0000 ca         1 HYS      -0.043600
      3 C03          2.0750     0.0000     1.1990 ca         1 HYS      -0.087000
      4 C04          1.3830    -0.0010     2.3960 ca         1 HYS      -0.090000
      5 C05         -0.0010    -0.0010     2.3950 ca         1 HYS      -0.080300
      6 C06         -0.6910     0.0050     1.1980 ca         1 HYS      -0.085000
      7 C07         -0.7540    -0.0020     3.7000 c3         1 HYS       0.028900
      8 C08         -1.0090     1.4400     4.1430 c3         1 HYS       0.144800
      9 N09         -1.7440     1.4390     5.4150 n7         1 HYS      -0.570200
     10 C10         -2.0070     2.8110     5.8720 c3         1 HYS       0.131800
     11 C11         -2.7710     2.7680     7.1960 c3         1 HYS       0.188100
     12 C12         -3.0460     4.1960     7.6720 c3         1 HYS       0.178400
     13 O13         -3.6560     4.1590     8.9640 os         1 HYS      -0.305900
     14 C14         -3.9670     5.3540     9.5340 ca         1 HYS       0.157100
     15 C15         -4.5610     5.3900    10.7870 ca         1 HYS      -0.172000
     16 C16         -4.8780     6.6030    11.3680 ca         1 HYS      -0.057000
     17 C17         -4.6000     7.7860    10.6970 ca         1 HYS      -0.004400
     18 C18         -4.0050     7.7490     9.4430 ca         1 HYS      -0.057000
     19 C19         -3.6850     6.5350     8.8660 ca         1 HYS      -0.172000
     20 N20         -4.9200     9.0160    11.2830 nu         1 HYS      -0.427500
     21 S21         -6.2290     9.8750    10.7450 s6         1 HYS       0.949900
     22 C22         -7.6540     8.8220    11.1350 c3         1 HYS       0.013700
     23 O23         -6.2370    11.0440    11.5510 o          1 HYS      -0.585300
     24 O24         -6.0400     9.9550     9.3380 o          1 HYS      -0.585300
     25 O25         -4.0110     2.0830     7.0100 oh         1 HYS      -0.565800
     26 Cl1          2.2540     0.0000    -1.5020 cl         1 HYS      -0.004400
     27 Cl2         -0.8680     0.0010    -1.5040 cl         1 HYS      -0.002400
     28 H1           3.1580    -0.0000     1.2000 ha         1 HYS       0.117000
     29 H2           1.9240    -0.0030     3.3340 ha         1 HYS       0.110000
     30 H3          -1.7740     0.0050     1.1980 ha         1 HYS       0.123000
     31 H4          -1.7000    -0.5130     3.5700 hc         1 HYS       0.025700
     32 H5          -0.1680    -0.5130     4.4540 hc         1 HYS       0.025700
     33 H6          -1.5940     1.9520     3.3890 h1         1 HYS       0.010700
     34 H7          -0.0620     1.9510     4.2740 h1         1 HYS       0.010700
     35 H8          -1.2110     0.9530     6.1080 hn         1 HYS       0.246800
     36 H10         -1.0670     3.3300     6.0140 h1         1 HYS       0.016200
     37 H11         -2.5990     3.3310     5.1290 h1         1 HYS       0.016200
     38 H12         -2.1790     2.2480     7.9390 h1         1 HYS       0.003700
     39 H13         -2.1120     4.7430     7.7290 h1         1 HYS       0.012700
     40 H14         -3.7100     4.6880     6.9720 h1         1 HYS       0.012700
     41 H15         -4.7780     4.4660    11.3100 ha         1 HYS       0.120000
     42 H16         -5.3420     6.6300    12.3460 ha         1 HYS       0.117000
     43 H17         -3.7860     8.6720     8.9190 ha         1 HYS       0.117000
     44 H18         -3.2210     6.5060     7.8880 ha         1 HYS       0.120000
     45 H19         -4.3420     9.3880    12.0110 hn         1 HYS       0.349800
     46 H20         -7.7100     8.0100    10.4200 h1         1 HYS       0.063033
     47 H21         -8.5620     9.4100    11.0850 h1         1 HYS       0.063033
     48 H22         -7.5410     8.4170    12.1330 h1         1 HYS       0.063033
     49 H23         -4.1040     1.4160     7.6700 ho         1 HYS       0.394000
@<TRIPOS>BOND
     1     1     2 ar  
     2     1     6 ar  
     3     1    27 1   
     4     2     3 ar  
     5     2    26 1   
     6     3     4 ar  
     7     3    28 1   
     8     4     5 ar  
     9     4    29 1   
    10     5     6 ar  
    11     5     7 1   
    12     6    30 1   
    13     7     8 1   
    14     7    31 1   
    15     7    32 1   
    16     8     9 1   
    17     8    33 1   
    18     8    34 1   
    19     9    10 1   
    20     9    35 1   
    21    10    11 1   
    22    10    36 1   
    23    10    37 1   
    24    11    12 1   
    25    11    25 1   
    26    11    38 1   
    27    12    13 1   
    28    12    39 1   
    29    12    40 1   
    30    13    14 1   
    31    14    15 ar  
    32    14    19 ar  
    33    15    16 ar  
    34    15    41 1   
    35    16    17 ar  
    36    16    42 1   
    37    17    18 ar  
    38    17    20 1   
    39    18    19 ar  
    40    18    43 1   
    41    19    44 1   
    42    20    21 1   
    43    20    45 1   
    44    21    22 1   
    45    21    23 2   
    46    21    24 2   
    47    22    46 1   
    48    22    47 1   
    49    22    48 1   
    50    25    49 1   
@<TRIPOS>SUBSTRUCTURE
     1 HYS         1 TEMP              0 ****  ****    0 ROOT
