@<TRIPOS>MOLECULE
HYT
   36    38     1     0     0
SMALL
bcc


@<TRIPOS>ATOM
      1 C01          0.0000     0.0000     0.0000 cc         1 HYT       0.087500
      2 C02         -0.8690     0.0010    -1.1930 c          1 HYT       0.531600
      3 N03         -2.2100    -0.0010    -1.0500 ns         1 HYT      -0.061100
      4 O05         -0.3760     0.0020    -2.3050 o          1 HYT      -0.616100
      5 C06          1.4100     0.0000     0.0000 cc         1 HYT       0.575300
      6 O07          2.2230     0.0020    -1.0880 oh         1 HYT      -0.528300
      7 N08          1.7830     0.0000     1.2620 nd         1 HYT      -0.748800
      8 N09          0.6170    -0.0010     2.0380 na         1 HYT       0.653900
      9 C10          0.5690    -0.0010     3.5030 c3         1 HYT       0.043600
     10 N14         -0.4060     0.0040     1.2570 nd         1 HYT      -0.553800
     11 C15         -4.6670     0.3150    -4.4120 cp         1 HYT      -0.033000
     12 C16         -4.2870    -0.9430    -3.9380 ca         1 HYT       0.104900
     13 F17         -4.7150    -2.0590    -4.5670 f          1 HYT      -0.104900
     14 C18         -3.4740    -1.0440    -2.8250 ca         1 HYT       0.106400
     15 F19         -3.1070    -2.2600    -2.3660 f          1 HYT      -0.103900
     16 C20         -3.0330     0.1050    -2.1770 ca         1 HYT      -0.098400
     17 C21         -3.4090     1.3600    -2.6470 ca         1 HYT       0.106400
     18 F22         -2.9780     2.4730    -2.0160 f          1 HYT      -0.103900
     19 C23         -4.2220     1.4670    -3.7590 ca         1 HYT       0.104900
     20 F24         -4.5870     2.6840    -4.2160 f          1 HYT      -0.104900
     21 C25         -7.1540     0.6350    -7.8440 ca         1 HYT      -0.085000
     22 C27         -5.8850     0.0990    -7.9620 ca         1 HYT      -0.099500
     23 C29         -5.0720    -0.0070    -6.8510 ca         1 HYT      -0.069500
     24 C31         -5.5340     0.4270    -5.6090 cp         1 HYT      -0.059000
     25 C32         -6.8140     0.9660    -5.4970 ca         1 HYT      -0.069500
     26 C34         -7.6170     1.0680    -6.6150 ca         1 HYT      -0.099500
     27 H1          -2.6160    -0.0980    -0.1410 hn         1 HYT       0.191500
     28 H3          -0.3930    -0.3730     3.8330 h1         1 HYT       0.029033
     29 H4           1.3550    -0.6390     3.8900 h1         1 HYT       0.029033
     30 H5           0.7110     1.0080     3.8690 h1         1 HYT       0.029033
     31 H6          -7.7880     0.7170    -8.7190 ha         1 HYT       0.103000
     32 H7          -5.5270    -0.2390    -8.9270 ha         1 HYT       0.106500
     33 H8          -4.0780    -0.4280    -6.9440 ha         1 HYT       0.110000
     34 H9          -7.1780     1.3060    -4.5350 ha         1 HYT       0.110000
     35 H10         -8.6130     1.4870    -6.5300 ha         1 HYT       0.106500
     36 H11          3.0910     0.2630    -0.8310 ho         1 HYT       0.411000
@<TRIPOS>BOND
     1     1     2 1   
     2     1     5 1   
     3     1    10 2   
     4     2     3 1   
     5     2     4 2   
     6     3    16 1   
     7     3    27 1   
     8     5     6 1   
     9     5     7 2   
    10     6    36 1   
    11     7     8 1   
    12     8     9 1   
    13     8    10 1   
    14     9    28 1   
    15     9    29 1   
    16     9    30 1   
    17    11    12 ar  
    18    11    19 ar  
    19    11    24 1   
    20    12    13 1   
    21    12    14 ar  
    22    14    15 1   
    23    14    16 ar  
    24    16    17 ar  
    25    17    18 1   
    26    17    19 ar  
    27    19    20 1   
    28    21    22 ar  
    29    21    26 ar  
    30    21    31 1   
    31    22    23 ar  
    32    22    32 1   
    33    23    24 ar  
    34    23    33 1   
    35    24    25 ar  
    36    25    26 ar  
    37    25    34 1   
    38    26    35 1   
@<TRIPOS>SUBSTRUCTURE
     1 HYT         1 TEMP              0 ****  ****    0 ROOT
