@<TRIPOS>MOLECULE
HYV
   60    64     1     0     0
SMALL
bcc


@<TRIPOS>ATOM
      1 C10          0.0000     0.0000     0.0000 c3         1 HYV       0.041000
      2 C13         -1.7240     3.2500     1.0820 c3         1 HYV      -0.130700
      3 C15         -2.4330     4.4310    -1.0020 c3         1 HYV       0.113800
      4 C17         -0.9290     5.8750    -2.0970 cc         1 HYV       0.542300
      5 C20         -0.0420     7.0120    -4.1050 cc         1 HYV       0.316900
      6 C22          0.2540     7.7310    -6.4370 cc         1 HYV      -0.328300
      7 C24          1.9950     9.0840    -6.1440 cd         1 HYV      -0.157000
      8 C28         -0.5230     4.1970     1.1640 c3         1 HYV      -0.015400
      9 C01          4.9710    -0.3870     5.4680 ca         1 HYV      -0.103000
     10 C02          4.7170    -1.5240     4.7230 ca         1 HYV      -0.097000
     11 C03          4.2620    -1.4100     3.4220 ca         1 HYV      -0.102000
     12 C04          4.0630    -0.1590     2.8670 ca         1 HYV      -0.091300
     13 C05          4.3170     0.9760     3.6120 ca         1 HYV      -0.102000
     14 C06          4.7720     0.8620     4.9130 ca         1 HYV      -0.097000
     15 C07          3.5670    -0.0350     1.4490 c3         1 HYV       0.033900
     16 C08          2.0380     0.0000     1.4450 c3         1 HYV      -0.048700
     17 C09          1.5310     0.0000     0.0000 c3         1 HYV      -0.049400
     18 N11         -0.4740     1.1350     0.8050 n          1 HYV      -0.148800
     19 C12         -1.3450     2.0240     0.2910 c          1 HYV       0.590100
     20 C14         -2.8840     3.9690     0.3860 c3         1 HYV      -0.015400
     21 N16         -1.2820     5.3350    -0.8690 nh         1 HYV      -0.409300
     22 N18         -1.5130     5.6390    -3.2350 nd         1 HYV      -0.322000
     23 N19         -1.0600     6.2190    -4.2590 nd         1 HYV      -0.271000
     24 N21          0.5940     7.7380    -5.1130 na         1 HYV       0.498100
     25 C23          1.0990     8.5500    -7.0940 cd         1 HYV      -0.157000
     26 C25          1.6600     8.5750    -4.9400 cc         1 HYV      -0.328300
     27 S26          0.3870     7.0120    -2.3940 ss         1 HYV      -0.387800
     28 C27         -0.1410     4.6520    -0.2460 c3         1 HYV       0.113800
     29 O29         -1.8260     1.8380    -0.8070 o          1 HYV      -0.645100
     30 C30          0.0230     1.2810     2.1800 c3         1 HYV       0.041000
     31 C31          1.5550     1.2660     2.1560 c3         1 HYV      -0.049400
     32 H1          -0.3620    -0.9260     0.4310 h1         1 HYV       0.034200
     33 H2          -0.3620     0.1000    -1.0160 h1         1 HYV       0.034200
     34 H3          -2.0270     2.9630     2.0810 hc         1 HYV       0.043700
     35 H4          -3.2460     4.9540    -1.4890 h1         1 HYV       0.045700
     36 H5          -2.1460     3.5690    -1.5920 h1         1 HYV       0.045700
     37 H7           2.8010     9.7790    -6.3430 ha         1 HYV       0.127000
     38 H8           0.3140     3.6790     1.6150 hc         1 HYV       0.029700
     39 H9          -0.7860     5.0610     1.7630 hc         1 HYV       0.029700
     40 H10          5.3280    -0.4760     6.4870 ha         1 HYV       0.103000
     41 H11          4.8730    -2.5040     5.1580 ha         1 HYV       0.103500
     42 H12          4.0630    -2.3000     2.8380 ha         1 HYV       0.106500
     43 H13          4.1600     1.9560     3.1770 ha         1 HYV       0.106500
     44 H14          4.9710     1.7530     5.4970 ha         1 HYV       0.103500
     45 H15          3.9500     0.8780     1.0110 hc         1 HYV       0.022200
     46 H16          3.9100    -0.8850     0.8710 hc         1 HYV       0.022200
     47 H17          1.6510    -0.8710     1.9600 hc         1 HYV       0.036700
     48 H18          1.8920     0.8860    -0.5080 hc         1 HYV       0.028200
     49 H19          1.8920    -0.8860    -0.5080 hc         1 HYV       0.028200
     50 H20         -3.7210     3.2890     0.2850 hc         1 HYV       0.029700
     51 H21         -3.1790     4.8300     0.9740 hc         1 HYV       0.029700
     52 H22          1.0930     8.7590    -8.1570 ha         1 HYV       0.127000
     53 H23          2.1550     8.7870    -4.0010 h4         1 HYV       0.156500
     54 H24          0.6990     5.3350    -0.1880 h1         1 HYV       0.045700
     55 H25          0.1300     3.7890    -0.8420 h1         1 HYV       0.045700
     56 H26         -0.3240     2.2210     2.5920 h1         1 HYV       0.034200
     57 H27         -0.3390     0.4580     2.7850 h1         1 HYV       0.034200
     58 H28          1.9150     2.1380     1.6240 hc         1 HYV       0.028200
     59 H29          1.9310     1.2740     3.1720 hc         1 HYV       0.028200
     60 H6          -0.5560     7.1650    -6.8810 h4         1 HYV       0.156500
@<TRIPOS>BOND
     1     1    17 1   
     2     1    18 1   
     3     1    32 1   
     4     1    33 1   
     5     2     8 1   
     6     2    19 1   
     7     2    20 1   
     8     2    34 1   
     9     3    20 1   
    10     3    21 1   
    11     3    35 1   
    12     3    36 1   
    13     4    21 1   
    14     4    22 2   
    15     4    27 1   
    16     5    23 2   
    17     5    24 1   
    18     5    27 1   
    19     6    24 1   
    20     6    25 2   
    21     6    60 1   
    22     7    25 1   
    23     7    26 2   
    24     7    37 1   
    25     8    28 1   
    26     8    38 1   
    27     8    39 1   
    28     9    10 ar  
    29     9    14 ar  
    30     9    40 1   
    31    10    11 ar  
    32    10    41 1   
    33    11    12 ar  
    34    11    42 1   
    35    12    13 ar  
    36    12    15 1   
    37    13    14 ar  
    38    13    43 1   
    39    14    44 1   
    40    15    16 1   
    41    15    45 1   
    42    15    46 1   
    43    16    17 1   
    44    16    31 1   
    45    16    47 1   
    46    17    48 1   
    47    17    49 1   
    48    18    19 1   
    49    18    30 1   
    50    19    29 2   
    51    20    50 1   
    52    20    51 1   
    53    21    28 1   
    54    22    23 1   
    55    24    26 1   
    56    25    52 1   
    57    26    53 1   
    58    28    54 1   
    59    28    55 1   
    60    30    31 1   
    61    30    56 1   
    62    30    57 1   
    63    31    58 1   
    64    31    59 1   
@<TRIPOS>SUBSTRUCTURE
     1 HYV         1 TEMP              0 ****  ****    0 ROOT
