@<TRIPOS>MOLECULE
molecule
   58    59     1     0     0
SMALL
bcc


@<TRIPOS>ATOM
      1 C01          0.0000     0.0000     0.0000 ca         1 HYY      -0.118000
      2 C02          1.3820     0.0000     0.0000 ca         1 HYY      -0.111000
      3 C03          2.0740     0.0000     1.1980 ca         1 HYY       0.026400
      4 C04          1.3800     0.0010     2.3970 ca         1 HYY       0.032400
      5 C05         -0.0030     0.0010     2.3950 ca         1 HYY      -0.112000
      6 C06         -0.6920     0.0050     1.1960 ca         1 HYY      -0.075300
      7 C07         -2.1990     0.0050     1.1950 c3         1 HYY      -0.036100
      8 C08         -2.7090     1.4480     1.2000 c3         1 HYY       0.160800
      9 N09         -4.1760     1.4490     1.1250 n3         1 HYY      -0.726600
     10 C10         -4.6390     0.9110    -0.1620 c3         1 HYY       0.147800
     11 C11         -4.1830     1.8350    -1.2930 c3         1 HYY      -0.125400
     12 C12         -4.7020     1.3000    -2.6290 c3         1 HYY      -0.087100
     13 C13         -4.7140     2.7960     1.3570 c3         1 HYY       0.160800
     14 C14         -6.2000     2.6980     1.7120 c3         1 HYY       0.152100
     15 C15         -6.7170     4.0760     2.1270 c3         1 HYY       0.108400
     16 O16         -8.0710     3.9630     2.5690 os         1 HYY      -0.330900
     17 C17         -8.6850     5.1060     2.9760 ca         1 HYY       0.152100
     18 C18         -7.9980     6.3110     2.9440 ca         1 HYY      -0.187500
     19 C19         -8.6210     7.4730     3.3580 ca         1 HYY      -0.084000
     20 C20         -9.9350     7.4340     3.8050 ca         1 HYY       0.072600
     21 C21        -10.6210     6.2280     3.8370 ca         1 HYY      -0.084000
     22 C22         -9.9990     5.0690     3.4180 ca         1 HYY      -0.187500
     23 N23        -10.5660     8.6110     4.2250 nu         1 HYY      -0.779500
     24 S24        -10.8100     8.8900     5.8380 s6         1 HYY       1.326900
     25 C25         -9.1430     8.8930     6.5540 c3         1 HYY      -0.243300
     26 O26        -11.3760    10.1920     5.8880 o          1 HYY      -0.627800
     27 O27        -11.5410     7.7550     6.2830 o          1 HYY      -0.627800
     28 O28         -6.9320     2.2370     0.5740 oh         1 HYY      -0.602800
     29 Cl1          2.2460    -0.0050     3.9010 cl         1 HYY      -0.086400
     30 Cl2          3.8090     0.0000     1.1990 cl         1 HYY      -0.086400
     31 H1          -0.5410     0.0020    -0.9380 ha         1 HYY       0.141000
     32 H2           1.9240    -0.0030    -0.9380 ha         1 HYY       0.150000
     33 H3          -0.5470     0.0040     3.3320 ha         1 HYY       0.152000
     34 H4          -2.5610    -0.5090     2.0770 hc         1 HYY       0.061700
     35 H5          -2.5590    -0.5020     0.3080 hc         1 HYY       0.061700
     36 H6          -2.3940     1.9390     2.1120 h1         1 HYY       0.039200
     37 H7          -2.3040     1.9770     0.3460 h1         1 HYY       0.039200
     38 H9          -4.2210    -0.0770    -0.3120 h1         1 HYY       0.068200
     39 H10         -5.7200     0.8490    -0.1600 h1         1 HYY       0.068200
     40 H11         -4.5750     2.8310    -1.1270 hc         1 HYY       0.043700
     41 H12         -3.1000     1.8720    -1.3150 hc         1 HYY       0.043700
     42 H13         -4.3730     0.2750    -2.7600 hc         1 HYY       0.034367
     43 H14         -5.7840     1.3350    -2.6370 hc         1 HYY       0.034367
     44 H15         -4.3150     1.9090    -3.4370 hc         1 HYY       0.034367
     45 H16         -4.1780     3.2630     2.1740 h1         1 HYY       0.047700
     46 H17         -4.5960     3.3920     0.4600 h1         1 HYY       0.047700
     47 H18         -6.3300     2.0020     2.5320 h1         1 HYY       0.060700
     48 H19         -6.6690     4.7490     1.2790 h1         1 HYY       0.045200
     49 H20         -6.1050     4.4640     2.9320 h1         1 HYY       0.045200
     50 H21         -6.9730     6.3410     2.5950 ha         1 HYY       0.145000
     51 H22         -8.0840     8.4130     3.3320 ha         1 HYY       0.149500
     52 H23        -11.6470     6.1970     4.1840 ha         1 HYY       0.149500
     53 H24        -10.5350     4.1280     3.4430 ha         1 HYY       0.145000
     54 H25        -10.8780     9.2800     3.5490 hn         1 HYY       0.464800
     55 H26         -8.4780     9.4660     5.9190 h1         1 HYY       0.098367
     56 H27         -9.1740     9.3410     7.5400 h1         1 HYY       0.098367
     57 H28         -8.7810     7.8750     6.6310 h1         1 HYY       0.098367
     58 H29         -7.6850     1.7490     0.8620 ho         1 HYY       0.414000
@<TRIPOS>BOND
     1    19    18 ar
     2    19    20 ar
     3    18    17 ar
     4    28    14 1
     5    23    20 1
     6    23    24 1
     7    20    21 ar
     8    29     4 1
     9    17    16 1
    10    17    22 ar
    11    16    15 1
    12     4     5 ar
    13     4     3 ar
    14     5     6 ar
    15    30     3 1
    16    26    24 2
    17     3     2 ar
    18    27    24 2
    19     6     7 1
    20     6     1 ar
    21     7     8 1
    22     2     1 ar
    23    24    25 1
    24    14    15 1
    25    14    13 1
    26    21    22 ar
    27     9     8 1
    28     9    13 1
    29     9    10 1
    30    11    12 1
    31    11    10 1
    32     1    31 1
    33     2    32 1
    34     5    33 1
    35     7    34 1
    36     7    35 1
    37     8    36 1
    38     8    37 1
    39    10    38 1
    40    10    39 1
    41    11    40 1
    42    11    41 1
    43    12    42 1
    44    12    43 1
    45    12    44 1
    46    13    45 1
    47    13    46 1
    48    14    47 1
    49    15    48 1
    50    15    49 1
    51    18    50 1
    52    19    51 1
    53    21    52 1
    54    22    53 1
    55    23    54 1
    56    25    55 1
    57    25    56 1
    58    25    57 1
    59    28    58 1
@<TRIPOS>SUBSTRUCTURE
     1 HYY         1 TEMP              0 ****  ****    0 ROOT
