@<TRIPOS>MOLECULE
HYY
   58    59     1     0     0
SMALL
bcc


@<TRIPOS>ATOM
      1 C01          0.0000     0.0000     0.0000 ca         1 HYY      -0.090000
      2 C02          1.3820     0.0000     0.0000 ca         1 HYY      -0.086000
      3 C03          2.0740     0.0000     1.1980 ca         1 HYY      -0.044600
      4 C04          1.3800     0.0010     2.3970 ca         1 HYY      -0.036600
      5 C05         -0.0030     0.0010     2.3950 ca         1 HYY      -0.088000
      6 C06         -0.6920     0.0050     1.1960 ca         1 HYY      -0.078300
      7 C07         -2.1990     0.0050     1.1950 c3         1 HYY       0.020900
      8 C08         -2.7090     1.4480     1.2000 c3         1 HYY       0.143800
      9 N09         -4.1760     1.4490     1.1250 n3         1 HYY      -0.534600
     10 C10         -4.6390     0.9110    -0.1620 c3         1 HYY       0.115800
     11 C11         -4.1830     1.8350    -1.2930 c3         1 HYY      -0.078400
     12 C12         -4.7020     1.3000    -2.6290 c3         1 HYY       0.014900
     13 C13         -4.7140     2.7960     1.3570 c3         1 HYY       0.132800
     14 C14         -6.2000     2.6980     1.7120 c3         1 HYY       0.187100
     15 C15         -6.7170     4.0760     2.1270 c3         1 HYY       0.168400
     16 O16         -8.0710     3.9630     2.5690 os         1 HYY      -0.307900
     17 C17         -8.6850     5.1060     2.9760 ca         1 HYY       0.157100
     18 C18         -7.9980     6.3110     2.9440 ca         1 HYY      -0.171500
     19 C19         -8.6210     7.4730     3.3580 ca         1 HYY      -0.059500
     20 C20         -9.9350     7.4340     3.8050 ca         1 HYY      -0.003400
     21 C21        -10.6210     6.2280     3.8370 ca         1 HYY      -0.059500
     22 C22         -9.9990     5.0690     3.4180 ca         1 HYY      -0.171500
     23 N23        -10.5660     8.6110     4.2250 nu         1 HYY      -0.427500
     24 S24        -10.8100     8.8900     5.8380 s6         1 HYY       0.950900
     25 C25         -9.1430     8.8930     6.5540 c3         1 HYY       0.012700
     26 O26        -11.3760    10.1920     5.8880 o          1 HYY      -0.584300
     27 O27        -11.5410     7.7550     6.2830 o          1 HYY      -0.584300
     28 O28         -6.9320     2.2370     0.5740 oh         1 HYY      -0.583800
     29 Cl1          2.2460    -0.0050     3.9010 cl         1 HYY      -0.004400
     30 Cl2          3.8090     0.0000     1.1990 cl         1 HYY      -0.004400
     31 H1          -0.5410     0.0020    -0.9380 ha         1 HYY       0.111000
     32 H2           1.9240    -0.0030    -0.9380 ha         1 HYY       0.117000
     33 H3          -0.5470     0.0040     3.3320 ha         1 HYY       0.122000
     34 H4          -2.5610    -0.5090     2.0770 hc         1 HYY       0.031200
     35 H5          -2.5590    -0.5020     0.3080 hc         1 HYY       0.031200
     36 H6          -2.3940     1.9390     2.1120 h1         1 HYY       0.015700
     37 H7          -2.3040     1.9770     0.3460 h1         1 HYY       0.015700
     38 H9          -4.2210    -0.0770    -0.3120 h1         1 HYY       0.044200
     39 H10         -5.7200     0.8490    -0.1600 h1         1 HYY       0.044200
     40 H11         -4.5750     2.8310    -1.1270 hc         1 HYY       0.022700
     41 H12         -3.1000     1.8720    -1.3150 hc         1 HYY       0.022700
     42 H13         -4.3730     0.2750    -2.7600 hc         1 HYY       0.001367
     43 H14         -5.7840     1.3350    -2.6370 hc         1 HYY       0.001367
     44 H15         -4.3150     1.9090    -3.4370 hc         1 HYY       0.001367
     45 H16         -4.1780     3.2630     2.1740 h1         1 HYY       0.024700
     46 H17         -4.5960     3.3920     0.4600 h1         1 HYY       0.024700
     47 H18         -6.3300     2.0020     2.5320 h1         1 HYY       0.022700
     48 H19         -6.6690     4.7490     1.2790 h1         1 HYY       0.011200
     49 H20         -6.1050     4.4640     2.9320 h1         1 HYY       0.011200
     50 H21         -6.9730     6.3410     2.5950 ha         1 HYY       0.120000
     51 H22         -8.0840     8.4130     3.3320 ha         1 HYY       0.118500
     52 H23        -11.6470     6.1970     4.1840 ha         1 HYY       0.118500
     53 H24        -10.5350     4.1280     3.4430 ha         1 HYY       0.120000
     54 H25        -10.8780     9.2800     3.5490 hn         1 HYY       0.350800
     55 H26         -8.4780     9.4660     5.9190 h1         1 HYY       0.063033
     56 H27         -9.1740     9.3410     7.5400 h1         1 HYY       0.063033
     57 H28         -8.7810     7.8750     6.6310 h1         1 HYY       0.063033
     58 H29         -7.6850     1.7490     0.8620 ho         1 HYY       0.401000
@<TRIPOS>BOND
     1     1     2 ar  
     2     1     6 ar  
     3     1    31 1   
     4     2     3 ar  
     5     2    32 1   
     6     3     4 ar  
     7     3    30 1   
     8     4     5 ar  
     9     4    29 1   
    10     5     6 ar  
    11     5    33 1   
    12     6     7 1   
    13     7     8 1   
    14     7    34 1   
    15     7    35 1   
    16     8     9 1   
    17     8    36 1   
    18     8    37 1   
    19     9    10 1   
    20     9    13 1   
    21    10    11 1   
    22    10    38 1   
    23    10    39 1   
    24    11    12 1   
    25    11    40 1   
    26    11    41 1   
    27    12    42 1   
    28    12    43 1   
    29    12    44 1   
    30    13    14 1   
    31    13    45 1   
    32    13    46 1   
    33    14    15 1   
    34    14    28 1   
    35    14    47 1   
    36    15    16 1   
    37    15    48 1   
    38    15    49 1   
    39    16    17 1   
    40    17    18 ar  
    41    17    22 ar  
    42    18    19 ar  
    43    18    50 1   
    44    19    20 ar  
    45    19    51 1   
    46    20    21 ar  
    47    20    23 1   
    48    21    22 ar  
    49    21    52 1   
    50    22    53 1   
    51    23    24 1   
    52    23    54 1   
    53    24    25 1   
    54    24    26 2   
    55    24    27 2   
    56    25    55 1   
    57    25    56 1   
    58    25    57 1   
    59    28    58 1   
@<TRIPOS>SUBSTRUCTURE
     1 HYY         1 TEMP              0 ****  ****    0 ROOT
