@<TRIPOS>MOLECULE
HYZ
   60    64     1     0     0
SMALL
bcc


@<TRIPOS>ATOM
      1 C1           0.0000     0.0000     0.0000 ca         1 HYZ      -0.125000
      2 C2           1.3820     0.0000     0.0000 ca         1 HYZ      -0.076000
      3 C3           2.0740     0.0000     1.1970 ca         1 HYZ      -0.085000
      4 C8           3.4190     3.3300     4.3200 cc         1 HYZ       0.434800
      5 C9           2.1670     3.3890     5.0680 ca         1 HYZ      -0.238900
      6 C10          1.5510     2.1330     4.9120 ca         1 HYZ      -0.180200
      7 C11          0.3240     1.8860     5.5210 ca         1 HYZ      -0.104000
      8 C12         -0.2780     2.8580     6.2670 ca         1 HYZ      -0.089000
      9 C13          0.3230     4.1070     6.4300 ca         1 HYZ      -0.021400
     10 C14          1.5410     4.3770     5.8360 ca         1 HYZ      -0.039000
     11 C15         -0.5760     8.8840     7.1340 ca         1 HYZ       0.559200
     12 C16         -0.7400     7.5630     7.5400 ca         1 HYZ      -0.382900
     13 C19         -1.4940     7.2300     8.8020 c3         1 HYZ       0.237100
     14 C20         -4.9990     5.0700    10.9170 c3         1 HYZ      -0.023900
     15 C21         -4.3420     5.4400     9.5840 c3         1 HYZ       0.161300
     16 C22         -4.6300     7.8040    10.0330 c3         1 HYZ       0.161300
     17 C24         -6.0100     6.1530    11.2990 c3         1 HYZ      -0.027400
     18 C4           1.3850     0.0000     2.3950 ca         1 HYZ      -0.106300
     19 C5           0.0020     0.0010     2.3980 ca         1 HYZ      -0.119000
     20 C6          -0.6920     0.0070     1.2000 ca         1 HYZ       0.103900
     21 F1          -2.0430     0.0080     1.2010 f          1 HYZ      -0.127900
     22 N1           2.3850     1.3810     4.1210 na         1 HYZ       0.446900
     23 N2           3.5070     2.1460     3.7850 nd         1 HYZ      -0.623100
     24 N4           0.0920     9.1370     6.0100 nb         1 HYZ      -0.674000
     25 C17         -0.1900     6.5590     6.7500 ca         1 HYZ       0.561200
     26 N5           0.4690     6.8950     5.6420 nb         1 HYZ      -0.656000
     27 C18          0.5970     8.1570     5.2890 ca         1 HYZ       0.663900
     28 N7          -2.9160     7.0450     8.4870 n7         1 HYZ      -0.437000
     29 N8          -3.6700     6.7400     9.7120 n3         1 HYZ      -0.405400
     30 C23         -5.2940     7.5040    11.3780 c3         1 HYZ      -0.023900
     31 H1          -0.5420     0.0020    -0.9380 ha         1 HYZ       0.119000
     32 H2           1.9240    -0.0030    -0.9380 ha         1 HYZ       0.109000
     33 H3           3.1570    -0.0000     1.1960 ha         1 HYZ       0.117000
     34 HN6         -0.6250    10.2420     8.7030 hn         1 HYZ       0.280800
     35 HN6A        -1.9370    10.3870     7.5790 hn         1 HYZ       0.280800
     36 H7           3.0870    -0.5110     3.5680 h1         1 HYZ       0.036700
     37 H7A          1.5560    -0.5110     4.4550 h1         1 HYZ       0.036700
     38 H8           4.1450     4.1280     4.2270 h4         1 HYZ       0.013800
     39 H11         -0.1540     0.9210     5.4030 ha         1 HYZ       0.103000
     40 H12         -1.2320     2.6580     6.7380 ha         1 HYZ       0.104000
     41 H14          2.0070     5.3470     5.9630 ha         1 HYZ       0.129000
     42 H19         -1.3830     8.0400     9.5130 h1         1 HYZ       0.018200
     43 H19A        -1.0960     6.3180     9.2300 h1         1 HYZ       0.018200
     44 H20         -4.2390     4.9990    11.6850 hc         1 HYZ       0.020200
     45 H20A        -5.5090     4.1200    10.8160 hc         1 HYZ       0.020200
     46 H21         -5.1020     5.5030     8.8140 h1         1 HYZ       0.010700
     47 H21A        -3.6140     4.6830     9.3200 h1         1 HYZ       0.010700
     48 H22         -4.1090     8.7520    10.0920 h1         1 HYZ       0.010700
     49 H22A        -5.3870     7.8500     9.2600 h1         1 HYZ       0.010700
     50 H24         -6.4440     5.9170    12.2640 hc         1 HYZ       0.015200
     51 H24A        -6.7890     6.2010    10.5480 hc         1 HYZ       0.015200
     52 H5          -0.5380     0.0040     3.3370 ha         1 HYZ       0.122000
     53 HN3         -0.8380     4.8300     8.0080 hn         1 HYZ       0.308800
     54 H18          1.1370     8.3970     4.3810 h5         1 HYZ      -0.000900
     55 HN7         -3.2790     7.8830     8.0770 hn         1 HYZ       0.259800
     56 H23         -6.0140     8.2810    11.6060 hc         1 HYZ       0.020200
     57 H23A        -4.5380     7.4670    12.1530 hc         1 HYZ       0.020200
     58 C7           2.1400    -0.0000     3.6990 c3         1 HYZ       0.065600
     59 N3          -0.3110     5.0900     7.1990 nu         1 HYZ      -0.388300
     60 N6          -1.1050     9.9220     7.8850 nv         1 HYZ      -0.650500
@<TRIPOS>BOND
     1     1     2 ar  
     2     1    20 ar  
     3     1    31 1   
     4     2     3 ar  
     5     2    32 1   
     6     3    18 ar  
     7     3    33 1   
     8     4     5 1   
     9     4    23 2   
    10     4    38 1   
    11     5     6 ar  
    12     5    10 ar  
    13     6     7 ar  
    14     6    22 1   
    15     7     8 ar  
    16     7    39 1   
    17     8     9 ar  
    18     8    40 1   
    19     9    10 ar  
    20     9    59 1   
    21    10    41 1   
    22    11    12 ar  
    23    11    24 ar  
    24    11    60 1   
    25    12    13 1   
    26    12    25 ar  
    27    13    28 1   
    28    13    42 1   
    29    13    43 1   
    30    14    15 1   
    31    14    17 1   
    32    14    44 1   
    33    14    45 1   
    34    15    29 1   
    35    15    46 1   
    36    15    47 1   
    37    16    29 1   
    38    16    30 1   
    39    16    48 1   
    40    16    49 1   
    41    17    30 1   
    42    17    50 1   
    43    17    51 1   
    44    18    19 ar  
    45    18    58 1   
    46    19    20 ar  
    47    19    52 1   
    48    20    21 1   
    49    22    23 1   
    50    22    58 1   
    51    24    27 ar  
    52    25    26 ar  
    53    25    59 1   
    54    26    27 ar  
    55    27    54 1   
    56    28    29 1   
    57    28    55 1   
    58    30    56 1   
    59    30    57 1   
    60    34    60 1   
    61    35    60 1   
    62    36    58 1   
    63    37    58 1   
    64    53    59 1   
@<TRIPOS>SUBSTRUCTURE
     1 HYZ         1 TEMP              0 ****  ****    0 ROOT
