@<TRIPOS>MOLECULE
molecule
   60    64     1     0     0
SMALL
bcc


@<TRIPOS>ATOM
      1 C1           0.0000     0.0000     0.0000 ca         1 HYZ      -0.159000
      2 C2           1.3820     0.0000     0.0000 ca         1 HYZ      -0.106000
      3 C3           2.0740     0.0000     1.1970 ca         1 HYZ      -0.116000
      4 C8           3.4190     3.3300     4.3200 cc         1 HYZ       0.377800
      5 C9           2.1670     3.3890     5.0680 ca         1 HYZ      -0.230900
      6 C10          1.5510     2.1330     4.9120 ca         1 HYZ      -0.033200
      7 C11          0.3240     1.8860     5.5210 ca         1 HYZ      -0.140000
      8 C12         -0.2780     2.8580     6.2670 ca         1 HYZ      -0.117000
      9 C13          0.3230     4.1070     6.4300 ca         1 HYZ       0.123600
     10 C14          1.5410     4.3770     5.8360 ca         1 HYZ      -0.070000
     11 C15         -0.5760     8.8840     7.1340 ca         1 HYZ       0.736200
     12 C16         -0.7400     7.5630     7.5400 ca         1 HYZ      -0.378900
     13 C19         -1.4940     7.2300     8.8020 c3         1 HYZ       0.227100
     14 C20         -4.9990     5.0700    10.9170 c3         1 HYZ      -0.078900
     15 C21         -4.3420     5.4400     9.5840 c3         1 HYZ       0.156800
     16 C22         -4.6300     7.8040    10.0330 c3         1 HYZ       0.156800
     17 C24         -6.0100     6.1530    11.2990 c3         1 HYZ      -0.084400
     18 C4           1.3850     0.0000     2.3950 ca         1 HYZ      -0.095300
     19 C5           0.0020     0.0010     2.3980 ca         1 HYZ      -0.150000
     20 C6          -0.6920     0.0070     1.2000 ca         1 HYZ       0.130900
     21 F1          -2.0430     0.0080     1.2010 f          1 HYZ      -0.140900
     22 N1           2.3850     1.3810     4.1210 na         1 HYZ       0.052900
     23 N2           3.5070     2.1460     3.7850 nd         1 HYZ      -0.503100
     24 N4           0.0920     9.1370     6.0100 nb         1 HYZ      -0.789000
     25 C17         -0.1900     6.5590     6.7500 ca         1 HYZ       0.741200
     26 N5           0.4690     6.8950     5.6420 nb         1 HYZ      -0.782000
     27 C18          0.5970     8.1570     5.2890 ca         1 HYZ       0.722900
     28 N7          -2.9160     7.0450     8.4870 n7         1 HYZ      -0.586000
     29 N8          -3.6700     6.7400     9.7120 n3         1 HYZ      -0.513400
     30 C23         -5.2940     7.5040    11.3780 c3         1 HYZ      -0.078900
     31 H1          -0.5420     0.0020    -0.9380 ha         1 HYZ       0.145000
     32 H2           1.9240    -0.0030    -0.9380 ha         1 HYZ       0.138000
     33 H3           3.1570    -0.0000     1.1960 ha         1 HYZ       0.143000
     34 HN6         -0.6250    10.2420     8.7030 hn         1 HYZ       0.441800
     35 HN6A        -1.9370    10.3870     7.5790 hn         1 HYZ       0.441800
     36 H7           3.0870    -0.5110     3.5680 h1         1 HYZ       0.069700
     37 H7A          1.5560    -0.5110     4.4550 h1         1 HYZ       0.069700
     38 H8           4.1450     4.1280     4.2270 h4         1 HYZ       0.061800
     39 H11         -0.1540     0.9210     5.4030 ha         1 HYZ       0.127000
     40 H12         -1.2320     2.6580     6.7380 ha         1 HYZ       0.133000
     41 H14          2.0070     5.3470     5.9630 ha         1 HYZ       0.155000
     42 H19         -1.3830     8.0400     9.5130 h1         1 HYZ       0.048200
     43 H19A        -1.0960     6.3180     9.2300 h1         1 HYZ       0.048200
     44 H20         -4.2390     4.9990    11.6850 hc         1 HYZ       0.049700
     45 H20A        -5.5090     4.1200    10.8160 hc         1 HYZ       0.049700
     46 H21         -5.1020     5.5030     8.8140 h1         1 HYZ       0.038200
     47 H21A        -3.6140     4.6830     9.3200 h1         1 HYZ       0.038200
     48 H22         -4.1090     8.7520    10.0920 h1         1 HYZ       0.038200
     49 H22A        -5.3870     7.8500     9.2600 h1         1 HYZ       0.038200
     50 H24         -6.4440     5.9170    12.2640 hc         1 HYZ       0.042700
     51 H24A        -6.7890     6.2010    10.5480 hc         1 HYZ       0.042700
     52 H5          -0.5380     0.0040     3.3370 ha         1 HYZ       0.144000
     53 HN3         -0.8380     4.8300     8.0080 hn         1 HYZ       0.466800
     54 H18          1.1370     8.3970     4.3810 h5         1 HYZ       0.063100
     55 HN7         -3.2790     7.8830     8.0770 hn         1 HYZ       0.346800
     56 H23         -6.0140     8.2810    11.6060 hc         1 HYZ       0.049700
     57 H23A        -4.5380     7.4670    12.1530 hc         1 HYZ       0.049700
     58 C7           2.1400    -0.0000     3.6990 c3         1 HYZ       0.134600
     59 N3          -0.3110     5.0900     7.1990 nu         1 HYZ      -0.809300
     60 N6          -1.1050     9.9220     7.8850 nv         1 HYZ      -1.079500
@<TRIPOS>BOND
     1     1     2 ar
     2    20     1 ar
     3     1    31 1
     4     2     3 ar
     5     2    32 1
     6     3    18 ar
     7     3    33 1
     8    60    11 1
     9    60    34 1
    10    60    35 1
    11    22    58 1
    12    18    58 1
    13    58    36 1
    14    58    37 1
    15     5     4 1
    16     4    23 2
    17     4    38 1
    18    10     5 ar
    19     5     6 ar
    20     7     6 ar
    21     6    22 1
    22     8     7 ar
    23     7    39 1
    24     9     8 ar
    25     8    40 1
    26    59     9 1
    27     9    10 ar
    28    10    41 1
    29    11    12 ar
    30    11    24 ar
    31    13    12 1
    32    12    25 ar
    33    28    13 1
    34    13    42 1
    35    13    43 1
    36    14    15 1
    37    14    17 1
    38    14    44 1
    39    14    45 1
    40    15    29 1
    41    15    46 1
    42    15    47 1
    43    29    16 1
    44    30    16 1
    45    16    48 1
    46    16    49 1
    47    17    30 1
    48    17    50 1
    49    17    51 1
    50    18    19 ar
    51    19    20 ar
    52    19    52 1
    53    21    20 1
    54    22    23 1
    55    25    59 1
    56    59    53 1
    57    24    27 ar
    58    25    26 ar
    59    27    26 ar
    60    27    54 1
    61    29    28 1
    62    28    55 1
    63    30    56 1
    64    30    57 1
@<TRIPOS>SUBSTRUCTURE
     1 HYZ         1 TEMP              0 ****  ****    0 ROOT
