@<TRIPOS>MOLECULE
HZ3
   47    50     1     0     0
SMALL
bcc


@<TRIPOS>ATOM
      1 CAK        -0.0410   -0.8620    0.0810 ca        1 HZ3     -0.075000
      2 CAG         1.3350   -1.0590    0.0470 ca        1 HZ3     -0.189250
      3 CAV         2.1360   -0.4960    1.0500 ca        1 HZ3      0.135100
      4 OAC         3.5020   -0.6500    1.0850 oh        1 HZ3     -0.494100
      5 CAH         1.5630    0.2650    2.0830 ca        1 HZ3     -0.189250
      6 CAL         0.1890    0.4570    2.0980 ca        1 HZ3     -0.075000
      7 CAX        -0.6320   -0.1010    1.1020 ca        1 HZ3     -0.082800
      8 CAR        -2.0590    0.0780    1.1380 ce        1 HZ3     -0.066400
      9 CBB        -3.0290   -0.9810    0.5580 c3        1 HZ3      0.202000
     10 OAQ        -4.1310   -0.8610    1.5260 os        1 HZ3     -0.396600
     11 CAT        -3.6990   -0.3000   -0.6600 ce        1 HZ3     -0.106400
     12 CAZ        -3.5170   -0.7370   -2.0350 c         1 HZ3      0.652800
     13 OAO        -2.4050   -1.5250   -2.2110 os        1 HZ3     -0.437900
     14 CAA        -2.1720   -2.0010   -3.5380 c3        1 HZ3      0.126200
     15 OAE        -4.2280   -0.5180   -3.0170 o         1 HZ3     -0.503500
     16 CAU        -4.4790    0.6860   -0.1430 cf        1 HZ3     -0.106400
     17 CBA        -5.3080    1.6980   -0.7850 c         1 HZ3      0.652800
     18 OAP        -6.5410    1.8270   -0.1980 os        1 HZ3     -0.437900
     19 CAB        -7.4210    2.7910   -0.7810 c3        1 HZ3      0.126200
     20 OAF        -5.0280    2.4390   -1.7280 o         1 HZ3     -0.503500
     21 CBC        -4.3080    0.5940    1.3940 c3        1 HZ3      0.202000
     22 CAS        -2.8570    1.0610    1.6540 cf        1 HZ3     -0.066400
     23 CAY        -2.5720    2.3180    2.2960 ca        1 HZ3     -0.082800
     24 CAM        -3.3570    2.7530    3.3780 ca        1 HZ3     -0.075000
     25 CAI        -3.1110    3.9730    3.9940 ca        1 HZ3     -0.189250
     26 CAW        -2.0650    4.7820    3.5170 ca        1 HZ3      0.135100
     27 OAD        -1.8730    5.9790    4.1630 oh        1 HZ3     -0.494100
     28 CAJ        -1.2720    4.3650    2.4380 ca        1 HZ3     -0.189250
     29 CAN        -1.5280    3.1370    1.8380 ca        1 HZ3     -0.075000
     30 HAK        -0.6750   -1.3010   -0.7090 ha        1 HZ3      0.147000
     31 HAG         1.7900   -1.6520   -0.7590 ha        1 HZ3      0.145750
     32 HOAC        3.7610   -1.1950    0.3280 ho        1 HZ3      0.421500
     33 HAH         2.2080    0.6950    2.8630 ha        1 HZ3      0.145750
     34 HAL        -0.2710    1.0550    2.9020 ha        1 HZ3      0.147000
     35 HBB        -2.6930   -2.0250    0.4590 h1        1 HZ3      0.129200
     36 HAA1       -3.0280   -2.6370   -3.8700 h1        1 HZ3      0.054700
     37 HAA2       -1.2310   -2.5950   -3.4410 h1        1 HZ3      0.054700
     38 HAA3       -2.0440   -1.1370   -4.2350 h1        1 HZ3      0.054700
     39 HAB1       -6.9740    3.8110   -0.6980 h1        1 HZ3      0.054700
     40 HAB2       -8.3510    2.6970   -0.1690 h1        1 HZ3      0.054700
     41 HAB3       -7.6070    2.5380   -1.8530 h1        1 HZ3      0.054700
     42 HBC        -5.1300    0.9550    2.0300 h1        1 HZ3      0.129200
     43 HAM        -4.1730    2.1140    3.7500 ha        1 HZ3      0.147000
     44 HAI        -3.7180    4.3160    4.8440 ha        1 HZ3      0.145750
     45 HOAD       -1.1350    6.4370    3.7320 ho        1 HZ3      0.421500
     46 HAJ        -0.4570    5.0030    2.0690 ha        1 HZ3      0.145750
     47 HAN        -0.9060    2.8000    0.9930 ha        1 HZ3      0.147000
@<TRIPOS>BOND
     1    1    2 ar  
     2    1    7 ar  
     3    1   30 1   
     4    2    3 ar  
     5    2   31 1   
     6    3    4 1   
     7    3    5 ar  
     8    4   32 1   
     9    5    6 ar  
    10    5   33 1   
    11    6    7 ar  
    12    6   34 1   
    13    7    8 1   
    14    8    9 1   
    15    8   22 2   
    16    9   10 1   
    17    9   11 1   
    18    9   35 1   
    19   10   21 1   
    20   11   12 1   
    21   11   16 2   
    22   12   13 1   
    23   12   15 2   
    24   13   14 1   
    25   14   36 1   
    26   14   37 1   
    27   14   38 1   
    28   16   17 1   
    29   16   21 1   
    30   17   18 1   
    31   17   20 2   
    32   18   19 1   
    33   19   39 1   
    34   19   40 1   
    35   19   41 1   
    36   21   22 1   
    37   21   42 1   
    38   22   23 1   
    39   23   24 ar  
    40   23   29 ar  
    41   24   25 ar  
    42   24   43 1   
    43   25   26 ar  
    44   25   44 1   
    45   26   27 1   
    46   26   28 ar  
    47   27   45 1   
    48   28   29 ar  
    49   28   46 1   
    50   29   47 1   
@<TRIPOS>SUBSTRUCTURE
     1 HZ3         1 TEMP              0 ****  ****    0 ROOT
