@<TRIPOS>MOLECULE
molecule
   47    50     1     0     0
SMALL
bcc


@<TRIPOS>ATOM
      1 CAK          0.0000     0.0000     0.0000 ca         1 HZ3      -0.094250
      2 CAG          1.3780     0.0000     0.0000 ca         1 HZ3      -0.154500
      3 CAV          2.0740     0.0000     1.2020 ca         1 HZ3       0.111100
      4 OAC          3.4330    -0.0010     1.1980 oh         1 HZ3      -0.521600
      5 CAH          1.3860     0.0020     2.4090 ca         1 HZ3      -0.154500
      6 CAL          0.0070     0.0030     2.4180 ca         1 HZ3      -0.094250
      7 CAX         -0.6980     0.0070     1.2110 ca         1 HZ3      -0.049800
      8 CAR         -2.1700     0.0080     1.2160 ce         1 HZ3      -0.083900
      9 CBB         -3.1060    -1.0960     0.7060 c3         1 HZ3       0.206000
     10 OAQ         -4.2100    -0.9810     1.6690 os         1 HZ3      -0.378600
     11 CAT         -3.7470    -0.5180    -0.5600 ce         1 HZ3      -0.111900
     12 CAZ         -3.5190    -0.9400    -1.9550 c          1 HZ3       0.636300
     13 OAO         -2.6610    -1.9430    -2.2240 os         1 HZ3      -0.430400
     14 CAA         -2.4850    -2.3060    -3.6190 c3         1 HZ3       0.142700
     15 OAE         -4.1040    -0.3830    -2.8620 o          1 HZ3      -0.480500
     16 CAU         -4.5710     0.4680    -0.1190 cf         1 HZ3      -0.111900
     17 CBA         -5.4350     1.3480    -0.9320 c          1 HZ3       0.636300
     18 OAP         -6.1980     2.2820    -0.3320 os         1 HZ3      -0.430400
     19 CAB         -7.0220     3.1120    -1.1930 c3         1 HZ3       0.142700
     20 OAF         -5.4550     1.2310    -2.1400 o          1 HZ3      -0.480500
     21 CBC         -4.4140     0.4550     1.4310 c3         1 HZ3       0.206000
     22 CAS         -2.9960     0.9830     1.6780 cf         1 HZ3      -0.083900
     23 CAY         -2.6110     2.2710     2.2830 ca         1 HZ3      -0.049800
     24 CAM         -2.9120     2.5340     3.6220 ca         1 HZ3      -0.094250
     25 CAI         -2.5510     3.7400     4.1830 ca         1 HZ3      -0.154500
     26 CAW         -1.8870     4.6930     3.4200 ca         1 HZ3       0.111100
     27 OAD         -1.5330     5.8790     3.9780 oh         1 HZ3      -0.521600
     28 CAJ         -1.5870     4.4350     2.0890 ca         1 HZ3      -0.154500
     29 CAN         -1.9390     3.2300     1.5200 ca         1 HZ3      -0.094250
     30 HAK         -0.5420     0.0020    -0.9380 ha         1 HZ3       0.140750
     31 HAG          1.9190    -0.0060    -0.9390 ha         1 HZ3       0.143000
     32 HOAC         3.7480     0.8880     1.1950 ho         1 HZ3       0.420000
     33 HAH          1.9340     0.0010     3.3430 ha         1 HZ3       0.143000
     34 HAL         -0.5290     0.0070     3.3590 ha         1 HZ3       0.140750
     35 HBB         -2.6680    -2.0820     0.6110 h1         1 HZ3       0.126200
     36 HAA1        -3.4220    -2.6770    -4.0160 h1         1 HZ3       0.051700
     37 HAA2        -1.7290    -3.0770    -3.6990 h1         1 HZ3       0.051700
     38 HAA3        -2.1740    -1.4350    -4.1830 h1         1 HZ3       0.051700
     39 HAB1        -7.7100     2.4860    -1.7480 h1         1 HZ3       0.051700
     40 HAB2        -6.3880     3.6540    -1.8850 h1         1 HZ3       0.051700
     41 HAB3        -7.5810     3.8160    -0.5890 h1         1 HZ3       0.051700
     42 HBC         -5.2080     0.9220     2.0010 h1         1 HZ3       0.126200
     43 HAM         -3.4300     1.7920     4.2180 ha         1 HZ3       0.140750
     44 HAI         -2.7840     3.9450     5.2210 ha         1 HZ3       0.143000
     45 HOAD        -0.6700     5.8070     4.3500 ho         1 HZ3       0.420000
     46 HAJ         -1.0680     5.1800     1.4980 ha         1 HZ3       0.143000
     47 HAN         -1.7040     3.0310     0.4810 ha         1 HZ3       0.140750
@<TRIPOS>BOND
     1    15    12 2
     2    12    13 1
     3    12    11 1
     4    13    14 1
     5    11     9 1
     6    11    16 2
     7    20    17 2
     8    10     9 1
     9    10    21 1
    10     9     8 1
    11    17    16 1
    12    17    18 1
    13    16    21 1
    14    21    22 1
    15     8     7 1
    16     8    22 2
    17    19    18 1
    18     7     6 ar
    19     7     1 ar
    20     6     5 ar
    21    22    23 1
    22     1     2 ar
    23     5     3 ar
    24     2     3 ar
    25     3     4 1
    26    23    29 ar
    27    23    24 ar
    28    29    28 ar
    29    24    25 ar
    30    28    26 ar
    31    25    26 ar
    32    26    27 1
    33     1    30 1
    34     2    31 1
    35     4    32 1
    36     5    33 1
    37     6    34 1
    38     9    35 1
    39    14    36 1
    40    14    37 1
    41    14    38 1
    42    19    39 1
    43    19    40 1
    44    19    41 1
    45    21    42 1
    46    24    43 1
    47    25    44 1
    48    27    45 1
    49    28    46 1
    50    29    47 1
@<TRIPOS>SUBSTRUCTURE
     1 HZ3         1 TEMP              0 ****  ****    0 ROOT
