@<TRIPOS>MOLECULE
molecule
   55    56     1     0     0
SMALL
bcc


@<TRIPOS>ATOM
      1 C01          0.0000     0.0000     0.0000 ca         1 HZ4      -0.117000
      2 C02          1.3830     0.0000     0.0000 ca         1 HZ4      -0.111000
      3 C03          2.0750     0.0000     1.1970 ca         1 HZ4       0.027400
      4 C04          1.3820     0.0010     2.3970 ca         1 HZ4       0.032400
      5 C05         -0.0010    -0.0000     2.3950 ca         1 HZ4      -0.113000
      6 C06         -0.6920     0.0000     1.1970 ca         1 HZ4      -0.076300
      7 C07         -2.1980     0.0000     1.1960 c3         1 HZ4      -0.036100
      8 C08         -2.7080    -1.4420     1.1950 c3         1 HZ4       0.160800
      9 N09         -4.1780    -1.4420     1.1950 n3         1 HZ4      -0.720600
     10 C10         -4.7050    -0.8840     2.4470 c3         1 HZ4       0.156800
     11 C11         -6.1810    -0.5250     2.2650 c3         1 HZ4      -0.094100
     12 C12         -4.7040    -2.7920     0.9560 c3         1 HZ4       0.163800
     13 C13         -4.5640    -3.1400    -0.5280 c3         1 HZ4       0.154100
     14 C14         -5.0530    -4.5700    -0.7640 c3         1 HZ4       0.108400
     15 O15         -4.8130    -4.9360    -2.1250 os         1 HZ4      -0.329900
     16 C16         -5.1930    -6.1850    -2.5040 ca         1 HZ4       0.153100
     17 C17         -5.7890    -7.0370    -1.5870 ca         1 HZ4      -0.188000
     18 C18         -6.1740    -8.3060    -1.9710 ca         1 HZ4      -0.083500
     19 C19         -5.9670    -8.7290    -3.2770 ca         1 HZ4       0.072600
     20 C20         -5.3700    -7.8760    -4.1960 ca         1 HZ4      -0.083500
     21 C21         -4.9900    -6.6050    -3.8100 ca         1 HZ4      -0.188000
     22 N22         -6.3570   -10.0150    -3.6680 nu         1 HZ4      -0.778500
     23 S23         -5.2160   -11.1910    -3.9050 s6         1 HZ4       1.324900
     24 C24         -4.4470   -11.4110    -2.2760 c3         1 HZ4      -0.243300
     25 O25         -5.9670   -12.3430    -4.2620 o          1 HZ4      -0.627300
     26 O26         -4.2940   -10.6060    -4.8160 o          1 HZ4      -0.627300
     27 O27         -5.3460    -2.2330    -1.3060 oh         1 HZ4      -0.583800
     28 Cl1          2.2490    -0.0000     3.9010 cl         1 HZ4      -0.086400
     29 Cl2          3.8100    -0.0010     1.1970 cl         1 HZ4      -0.086400
     30 H1          -0.5410     0.0000    -0.9380 ha         1 HZ4       0.143000
     31 H2           1.9250    -0.0000    -0.9380 ha         1 HZ4       0.151000
     32 H3          -0.5430     0.0000     3.3330 ha         1 HZ4       0.149000
     33 H4          -2.5590     0.5110     0.3110 hc         1 HZ4       0.062700
     34 H5          -2.5600     0.5110     2.0800 hc         1 HZ4       0.062700
     35 H6          -2.3470    -1.9520     0.3110 h1         1 HZ4       0.036700
     36 H7          -2.3470    -1.9530     2.0800 h1         1 HZ4       0.036700
     37 H9          -4.6070    -1.6180     3.2380 h1         1 HZ4       0.033700
     38 H10         -4.1460     0.0060     2.7090 h1         1 HZ4       0.033700
     39 H11         -6.4370     0.2940     2.9250 hc         1 HZ4       0.043033
     40 H12         -6.7940    -1.3860     2.5030 hc         1 HZ4       0.043033
     41 H13         -6.3560    -0.2290     1.2380 hc         1 HZ4       0.043033
     42 H14         -4.1470    -3.5070     1.5490 h1         1 HZ4       0.046200
     43 H15         -5.7500    -2.8270     1.2370 h1         1 HZ4       0.046200
     44 H16         -3.5230    -3.0610    -0.8200 h1         1 HZ4       0.044700
     45 H17         -6.1150    -4.6270    -0.5570 h1         1 HZ4       0.045200
     46 H18         -4.5200    -5.2480    -0.1090 h1         1 HZ4       0.045200
     47 H19         -5.9510    -6.7080    -0.5670 ha         1 HZ4       0.144500
     48 H20         -6.6400    -8.9710    -1.2540 ha         1 HZ4       0.148500
     49 H21         -5.2090    -8.2040    -5.2160 ha         1 HZ4       0.148500
     50 H22         -4.5240    -5.9390    -4.5270 ha         1 HZ4       0.144500
     51 H23         -7.3240   -10.2170    -3.8280 hn         1 HZ4       0.464800
     52 H24         -5.2130   -11.3980    -1.5100 h1         1 HZ4       0.098033
     53 H25         -3.7430   -10.6070    -2.0970 h1         1 HZ4       0.098033
     54 H26         -3.9250   -12.3600    -2.2490 h1         1 HZ4       0.098033
     55 H27         -4.9040    -2.0540    -2.1190 ho         1 HZ4       0.409000
@<TRIPOS>BOND
     1    24    23 1
     2    10    11 1
     3    10     9 1
     4    12     9 1
     5    12    13 1
     6     8     9 1
     7     8     7 1
     8    18    17 ar
     9    18    19 ar
    10    14    13 1
    11    14    15 1
    12    17    16 ar
    13    23    26 2
    14    23    25 2
    15    23    22 1
    16    13    27 1
    17     7     6 1
    18     1     6 ar
    19     1     2 ar
    20    22    19 1
    21    19    20 ar
    22     6     5 ar
    23    16    15 1
    24    16    21 ar
    25     2     3 ar
    26     5     4 ar
    27     3     4 ar
    28     3    29 1
    29     4    28 1
    30    20    21 ar
    31     1    30 1
    32     2    31 1
    33     5    32 1
    34     7    33 1
    35     7    34 1
    36     8    35 1
    37     8    36 1
    38    10    37 1
    39    10    38 1
    40    11    39 1
    41    11    40 1
    42    11    41 1
    43    12    42 1
    44    12    43 1
    45    13    44 1
    46    14    45 1
    47    14    46 1
    48    17    47 1
    49    18    48 1
    50    20    49 1
    51    21    50 1
    52    22    51 1
    53    24    52 1
    54    24    53 1
    55    24    54 1
    56    27    55 1
@<TRIPOS>SUBSTRUCTURE
     1 HZ4         1 TEMP              0 ****  ****    0 ROOT
