@<TRIPOS>MOLECULE
HZ4
   55    56     1     0     0
SMALL
bcc


@<TRIPOS>ATOM
      1 C01          0.0000     0.0000     0.0000 ca         1 HZ4      -0.088000
      2 C02          1.3830     0.0000     0.0000 ca         1 HZ4      -0.086000
      3 C03          2.0750     0.0000     1.1970 ca         1 HZ4      -0.043600
      4 C04          1.3820     0.0010     2.3970 ca         1 HZ4      -0.036600
      5 C05         -0.0010    -0.0000     2.3950 ca         1 HZ4      -0.090000
      6 C06         -0.6920     0.0000     1.1970 ca         1 HZ4      -0.079300
      7 C07         -2.1980     0.0000     1.1960 c3         1 HZ4       0.020900
      8 C08         -2.7080    -1.4420     1.1950 c3         1 HZ4       0.144800
      9 N09         -4.1780    -1.4420     1.1950 n3         1 HZ4      -0.525600
     10 C10         -4.7050    -0.8840     2.4470 c3         1 HZ4       0.140800
     11 C11         -6.1810    -0.5250     2.2650 c3         1 HZ4      -0.002100
     12 C12         -4.7040    -2.7920     0.9560 c3         1 HZ4       0.139800
     13 C13         -4.5640    -3.1400    -0.5280 c3         1 HZ4       0.184100
     14 C14         -5.0530    -4.5700    -0.7640 c3         1 HZ4       0.170400
     15 O15         -4.8130    -4.9360    -2.1250 os         1 HZ4      -0.305900
     16 C16         -5.1930    -6.1850    -2.5040 ca         1 HZ4       0.157100
     17 C17         -5.7890    -7.0370    -1.5870 ca         1 HZ4      -0.171500
     18 C18         -6.1740    -8.3060    -1.9710 ca         1 HZ4      -0.058500
     19 C19         -5.9670    -8.7290    -3.2770 ca         1 HZ4      -0.004400
     20 C20         -5.3700    -7.8760    -4.1960 ca         1 HZ4      -0.058500
     21 C21         -4.9900    -6.6050    -3.8100 ca         1 HZ4      -0.171500
     22 N22         -6.3570   -10.0150    -3.6680 nu         1 HZ4      -0.426500
     23 S23         -5.2160   -11.1910    -3.9050 s6         1 HZ4       0.948900
     24 C24         -4.4470   -11.4110    -2.2760 c3         1 HZ4       0.013700
     25 O25         -5.9670   -12.3430    -4.2620 o          1 HZ4      -0.584300
     26 O26         -4.2940   -10.6060    -4.8160 o          1 HZ4      -0.584300
     27 O27         -5.3460    -2.2330    -1.3060 oh         1 HZ4      -0.567800
     28 Cl1          2.2490    -0.0000     3.9010 cl         1 HZ4      -0.004400
     29 Cl2          3.8100    -0.0010     1.1970 cl         1 HZ4      -0.003400
     30 H1          -0.5410     0.0000    -0.9380 ha         1 HZ4       0.113000
     31 H2           1.9250    -0.0000    -0.9380 ha         1 HZ4       0.118000
     32 H3          -0.5430     0.0000     3.3330 ha         1 HZ4       0.119000
     33 H4          -2.5590     0.5110     0.3110 hc         1 HZ4       0.031200
     34 H5          -2.5600     0.5110     2.0800 hc         1 HZ4       0.031200
     35 H6          -2.3470    -1.9520     0.3110 h1         1 HZ4       0.012700
     36 H7          -2.3470    -1.9530     2.0800 h1         1 HZ4       0.012700
     37 H9          -4.6070    -1.6180     3.2380 h1         1 HZ4       0.010200
     38 H10         -4.1460     0.0060     2.7090 h1         1 HZ4       0.010200
     39 H11         -6.4370     0.2940     2.9250 hc         1 HZ4       0.009367
     40 H12         -6.7940    -1.3860     2.5030 hc         1 HZ4       0.009367
     41 H13         -6.3560    -0.2290     1.2380 hc         1 HZ4       0.009367
     42 H14         -4.1470    -3.5070     1.5490 h1         1 HZ4       0.020700
     43 H15         -5.7500    -2.8270     1.2370 h1         1 HZ4       0.020700
     44 H16         -3.5230    -3.0610    -0.8200 h1         1 HZ4       0.011700
     45 H17         -6.1150    -4.6270    -0.5570 h1         1 HZ4       0.011200
     46 H18         -4.5200    -5.2480    -0.1090 h1         1 HZ4       0.011200
     47 H19         -5.9510    -6.7080    -0.5670 ha         1 HZ4       0.120000
     48 H20         -6.6400    -8.9710    -1.2540 ha         1 HZ4       0.118000
     49 H21         -5.2090    -8.2040    -5.2160 ha         1 HZ4       0.118000
     50 H22         -4.5240    -5.9390    -4.5270 ha         1 HZ4       0.120000
     51 H23         -7.3240   -10.2170    -3.8280 hn         1 HZ4       0.349800
     52 H24         -5.2130   -11.3980    -1.5100 h1         1 HZ4       0.062700
     53 H25         -3.7430   -10.6070    -2.0970 h1         1 HZ4       0.062700
     54 H26         -3.9250   -12.3600    -2.2490 h1         1 HZ4       0.062700
     55 H27         -4.9040    -2.0540    -2.1190 ho         1 HZ4       0.395000
@<TRIPOS>BOND
     1     1     2 ar  
     2     1     6 ar  
     3     1    30 1   
     4     2     3 ar  
     5     2    31 1   
     6     3     4 ar  
     7     3    29 1   
     8     4     5 ar  
     9     4    28 1   
    10     5     6 ar  
    11     5    32 1   
    12     6     7 1   
    13     7     8 1   
    14     7    33 1   
    15     7    34 1   
    16     8     9 1   
    17     8    35 1   
    18     8    36 1   
    19     9    10 1   
    20     9    12 1   
    21    10    11 1   
    22    10    37 1   
    23    10    38 1   
    24    11    39 1   
    25    11    40 1   
    26    11    41 1   
    27    12    13 1   
    28    12    42 1   
    29    12    43 1   
    30    13    14 1   
    31    13    27 1   
    32    13    44 1   
    33    14    15 1   
    34    14    45 1   
    35    14    46 1   
    36    15    16 1   
    37    16    17 ar  
    38    16    21 ar  
    39    17    18 ar  
    40    17    47 1   
    41    18    19 ar  
    42    18    48 1   
    43    19    20 ar  
    44    19    22 1   
    45    20    21 ar  
    46    20    49 1   
    47    21    50 1   
    48    22    23 1   
    49    22    51 1   
    50    23    24 1   
    51    23    25 2   
    52    23    26 2   
    53    24    52 1   
    54    24    53 1   
    55    24    54 1   
    56    27    55 1   
@<TRIPOS>SUBSTRUCTURE
     1 HZ4         1 TEMP              0 ****  ****    0 ROOT
