@<TRIPOS>MOLECULE
HZH
   27    27     1     0     0
SMALL
bcc


@<TRIPOS>ATOM
      1 F2          0.1450   -0.2120   -0.1160 f         1 HZH     -0.225967
      2 C11         1.4990   -0.0120   -0.1410 c3        1 HZH      0.522900
      3 F1          1.9240   -0.2060    1.1460 f         1 HZH     -0.225967
      4 F3          2.0000   -1.0790   -0.8420 f         1 HZH     -0.225967
      5 C10         1.9040    1.3970   -0.7190 c         1 HZH      0.567100
      6 O1          1.4940    2.3950   -0.1460 o         1 HZH     -0.421100
      7 C9          2.7610    1.3080   -1.9280 c3        1 HZH     -0.133300
      8 S           3.2140    2.8870   -2.5730 ss        1 HZH     -0.232200
      9 C8          4.1940    2.3870   -3.9580 c3        1 HZH     -0.018300
     10 C7          4.6720    3.6520   -4.6340 c3        1 HZH     -0.027100
     11 C6          5.5120    3.3370   -5.8230 ca        1 HZH     -0.086300
     12 C4          4.9230    3.1900   -7.0840 ca        1 HZH     -0.124000
     13 C2          5.7110    2.9010   -8.1970 ca        1 HZH     -0.128000
     14 C1          7.0920    2.7580   -8.0600 ca        1 HZH     -0.127000
     15 C3          7.6840    2.9060   -6.8050 ca        1 HZH     -0.128000
     16 C5          6.8980    3.1940   -5.6910 ca        1 HZH     -0.124000
     17 H9          2.2110    0.7150   -2.7070 h1        1 HZH      0.103700
     18 H9A         3.6810    0.7190   -1.6650 h1        1 HZH      0.103700
     19 H8          3.5890    1.7690   -4.6660 h1        1 HZH      0.066700
     20 H8A         5.0630    1.7690   -3.6240 h1        1 HZH      0.066700
     21 H7          5.2650    4.2670   -3.9030 hc        1 HZH      0.065700
     22 H7A         3.7850    4.2680   -4.9480 hc        1 HZH      0.065700
     23 H4          3.8350    3.3050   -7.1960 ha        1 HZH      0.133000
     24 H2          5.2420    2.7880   -9.1860 ha        1 HZH      0.133000
     25 H1          7.7130    2.5320   -8.9390 ha        1 HZH      0.133000
     26 H3          8.7730    2.7960   -6.6940 ha        1 HZH      0.133000
     27 H5          7.3680    3.3130   -4.7030 ha        1 HZH      0.133000
@<TRIPOS>BOND
     1    1    2 1   
     2    2    3 1   
     3    2    4 1   
     4    2    5 1   
     5    5    6 2   
     6    5    7 1   
     7    7    8 1   
     8    7   17 1   
     9    7   18 1   
    10    8    9 1   
    11    9   10 1   
    12    9   19 1   
    13    9   20 1   
    14   10   11 1   
    15   10   21 1   
    16   10   22 1   
    17   11   12 ar  
    18   11   16 ar  
    19   12   13 ar  
    20   12   23 1   
    21   13   14 ar  
    22   13   24 1   
    23   14   15 ar  
    24   14   25 1   
    25   15   16 ar  
    26   15   26 1   
    27   16   27 1   
@<TRIPOS>SUBSTRUCTURE
     1 HZH         1 TEMP              0 ****  ****    0 ROOT
