@<TRIPOS>MOLECULE
molecule
   27    27     1     0     0
SMALL
bcc


@<TRIPOS>ATOM
      1 F2           0.0000     0.0000     0.0000 f          1 HZH      -0.211300
      2 C11          1.3990     0.0000     0.0000 c3         1 HZH       0.533900
      3 F1           1.8660     0.0000     1.3180 f          1 HZH      -0.211300
      4 F3           1.8650    -1.1420    -0.6590 f          1 HZH      -0.211300
      5 C10          1.9010     1.2310    -0.7110 c          1 HZH       0.532100
      6 O1           1.6090     2.3270    -0.2980 o          1 HZH      -0.421100
      7 C9           2.7670     1.0930    -1.9360 c3         1 HZH      -0.096300
      8 S            3.2040     2.7400    -2.5560 ss         1 HZH      -0.286200
      9 C8           4.2290     2.3720    -4.0070 c3         1 HZH       0.007700
     10 C7           4.6860     3.6800    -4.6550 c3         1 HZH      -0.018100
     11 C6           5.5370     3.3740    -5.8600 ca         1 HZH      -0.088300
     12 C4           4.9510     3.2340    -7.1030 ca         1 HZH      -0.122000
     13 C2           5.7310     2.9520    -8.2090 ca         1 HZH      -0.125500
     14 C1           7.0990     2.8120    -8.0710 ca         1 HZH      -0.127000
     15 C3           7.6870     2.9540    -6.8280 ca         1 HZH      -0.125500
     16 C5           6.9060     3.2390    -5.7220 ca         1 HZH      -0.122000
     17 H9           2.2250     0.5510    -2.7020 h1         1 HZH       0.093700
     18 H9A          3.6700     0.5520    -1.6800 h1         1 HZH       0.093700
     19 H8           3.6510     1.7980    -4.7210 h1         1 HZH       0.061700
     20 H8A          5.0960     1.7990    -3.7010 h1         1 HZH       0.061700
     21 H7           3.8200     4.2540    -4.9610 hc         1 HZH       0.062700
     22 H7A          5.2650     4.2540    -3.9410 hc         1 HZH       0.062700
     23 H4           3.8780     3.3430    -7.2110 ha         1 HZH       0.131500
     24 H2           5.2710     2.8410    -9.1830 ha         1 HZH       0.131000
     25 H1           7.7110     2.5900    -8.9370 ha         1 HZH       0.131000
     26 H3           8.7590     2.8460    -6.7200 ha         1 HZH       0.131000
     27 H5           7.3670     3.3500    -4.7480 ha         1 HZH       0.131500
@<TRIPOS>BOND
     1     1     2 1
     2     2     3 1
     3     2     4 1
     4     2     5 1
     5     5     6 2
     6     5     7 1
     7     7     8 1
     8     8     9 1
     9     9    10 1
    10    10    11 1
    11    11    12 ar
    12    11    16 ar
    13    12    13 ar
    14    13    14 ar
    15    14    15 ar
    16    15    16 ar
    17     7    17 1
    18     7    18 1
    19     9    19 1
    20     9    20 1
    21    10    21 1
    22    10    22 1
    23    12    23 1
    24    13    24 1
    25    14    25 1
    26    15    26 1
    27    16    27 1
@<TRIPOS>SUBSTRUCTURE
     1 HZH         1 TEMP              0 ****  ****    0 ROOT
