@<TRIPOS>MOLECULE
HZM
   72    75     1     0     0
SMALL
bcc


@<TRIPOS>ATOM
      1 C02          0.0000     0.0000     0.0000 c          1 HZM       0.965200
      2 C04          1.4780     0.0000     0.0000 ca         1 HZM      -0.035600
      3 C05          2.2010     0.0000     1.2110 ca         1 HZM      -0.036400
      4 C06          3.6000     0.0000     1.1730 ca         1 HZM       0.357100
      5 C07          4.1730    -0.0010     2.5090 cc         1 HZM      -0.210800
      6 C08          3.2930    -0.0010     3.4920 cd         1 HZM      -0.081600
      7 C09          3.6540    -0.0010     4.9540 c3         1 HZM       0.324600
      8 C10          3.6550    -1.4160     5.4710 ca         1 HZM      -0.074300
      9 C11          2.4610    -2.0330     5.7970 ca         1 HZM      -0.064000
     10 C12          2.4570    -3.3320     6.2710 ca         1 HZM      -0.089000
     11 C13          3.6470    -4.0170     6.4230 ca         1 HZM      -0.138000
     12 C14          4.8480    -3.4000     6.0980 ca         1 HZM      -0.108400
     13 C16          7.1750    -3.4230     6.5910 c          1 HZM       0.552100
     14 C17          8.4950    -4.1460     6.6480 c3         1 HZM      -0.098400
     15 C18          9.5970    -3.1660     7.0540 c3         1 HZM      -0.022400
     16 C19         10.9380    -3.9010     7.1110 c3         1 HZM       0.149800
     17 C21         13.2480    -3.6680     7.7990 c3         1 HZM       0.181600
     18 C22         12.2010    -1.9380     6.4670 c3         1 HZM       0.181600
     19 C24          4.8470    -2.0980     5.6160 ca         1 HZM      -0.073000
     20 C36          3.5770    -0.0050    -1.1540 ca         1 HZM       0.365200
     21 C37          2.1930    -0.0050    -1.1980 ca         1 HZM      -0.187300
     22 N15          6.0540    -4.0910     6.2510 ns         1 HZM      -0.033100
     23 N20         11.9950    -2.9600     7.5030 n3         1 HZM      -0.543600
     24 N35          4.2250    -0.0010    -0.0160 nb         1 HZM      -0.586000
     25 O01         -0.6070    -0.0000     1.0520 o          1 HZM      -0.863800
     26 O03         -0.6740     0.0050    -1.1670 o          1 HZM      -0.863800
     27 O23          7.1200    -2.2400     6.8510 o          1 HZM      -0.626100
     28 O25          2.6980     0.7720     5.6810 os         1 HZM      -0.380600
     29 S34          1.6500    -0.0000     2.8800 ss         1 HZM      -0.129500
     30 H1           5.2420    -0.0010     2.6850 ha         1 HZM       0.109000
     31 H2           4.6390     0.4310     5.0830 h1         1 HZM       0.015700
     32 H3           1.5260    -1.4990     5.6770 ha         1 HZM       0.135000
     33 H4           1.5200    -3.8090     6.5330 ha         1 HZM       0.102000
     34 H5           3.6470    -5.0160     6.8410 ha         1 HZM       0.096000
     35 H6           8.4380    -4.9470     7.3750 hc         1 HZM       0.023700
     36 H7           8.7230    -4.5600     5.6730 hc         1 HZM       0.023700
     37 H8           9.6550    -2.3660     6.3270 hc         1 HZM       0.038700
     38 H9           9.3700    -2.7530     8.0300 hc         1 HZM       0.038700
     39 H10         11.1650    -4.3140     6.1360 h1         1 HZM       0.003700
     40 H11         10.8800    -4.7020     7.8380 h1         1 HZM       0.003700
     41 H12         13.9960    -2.9570     8.1290 h1         1 HZM       0.000367
     42 H13         13.0750    -4.3970     8.5810 h1         1 HZM       0.000367
     43 H14         13.5980    -4.1720     6.9070 h1         1 HZM       0.000367
     44 H15         12.0520    -2.3800     5.4900 h1         1 HZM       0.000367
     45 H16         13.2100    -1.5500     6.5380 h1         1 HZM       0.000367
     46 H17         11.4930    -1.1310     6.6100 h1         1 HZM       0.000367
     47 H18          5.6790    -1.7730     5.0020 ha         1 HZM       0.121000
     48 H19          3.9830     2.2540     6.3130 h1         1 HZM      -0.000300
     49 H20          3.1140     2.5920     4.8090 h1         1 HZM      -0.000300
     50 H22          4.1360    -0.0090    -2.0820 h4         1 HZM      -0.038900
     51 H23          1.6730    -0.0090    -2.1490 ha         1 HZM       0.140000
     52 H24          6.0890    -5.0780     6.0900 hn         1 HZM       0.160500
     53 C27          1.9450     2.8810     6.5900 c3         1 HZM       0.149800
     54 N28          1.8810     2.3310     7.9510 n3         1 HZM      -0.522600
     55 C33          0.9070     3.0640     8.7700 c3         1 HZM       0.145300
     56 C32          0.7610     2.3760    10.1300 c3         1 HZM      -0.023400
     57 C31          2.1230     2.3430    10.8290 c3         1 HZM      -0.027400
     58 C30          3.1310     1.6170     9.9340 c3         1 HZM      -0.023400
     59 C29          3.2080     2.3280     8.5810 c3         1 HZM       0.145300
     60 H21          2.1780     3.9380     6.6390 h1         1 HZM       0.017700
     61 H25          0.9900     2.7440     6.0990 h1         1 HZM       0.017700
     62 H27         -0.0520     3.0730     8.2660 h1         1 HZM       0.009700
     63 H28          1.2530     4.0800     8.9160 h1         1 HZM       0.009700
     64 H29          0.4050     1.3630     9.9850 hc         1 HZM       0.017700
     65 H30          0.0560     2.9290    10.7390 hc         1 HZM       0.017700
     66 H31          2.0320     1.8160    11.7710 hc         1 HZM       0.006200
     67 H32          2.4620     3.3560    11.0060 hc         1 HZM       0.006200
     68 H33          2.8090     0.5930     9.7850 hc         1 HZM       0.017700
     69 H34          4.1060     1.6300    10.4050 hc         1 HZM       0.017700
     70 H35          3.5380     3.3490     8.7290 h1         1 HZM       0.009700
     71 H36          3.9090     1.8060     7.9400 h1         1 HZM       0.009700
     72 C26          3.0350     2.1560     5.7980 c3         1 HZM       0.194400
@<TRIPOS>BOND
     1     1     2 1   
     2     1    25 1   
     3     1    26 1   
     4     2     3 ar  
     5     2    21 ar  
     6     3     4 ar  
     7     3    29 1   
     8     4     5 1   
     9     4    24 ar  
    10     5     6 2   
    11     5    30 1   
    12     6     7 1   
    13     6    29 1   
    14     7     8 1   
    15     7    28 1   
    16     7    31 1   
    17     8     9 ar  
    18     8    19 ar  
    19     9    10 ar  
    20     9    32 1   
    21    10    11 ar  
    22    10    33 1   
    23    11    12 ar  
    24    11    34 1   
    25    12    19 ar  
    26    12    22 1   
    27    13    14 1   
    28    13    22 1   
    29    13    27 2   
    30    14    15 1   
    31    14    35 1   
    32    14    36 1   
    33    15    16 1   
    34    15    37 1   
    35    15    38 1   
    36    16    23 1   
    37    16    39 1   
    38    16    40 1   
    39    17    23 1   
    40    17    41 1   
    41    17    42 1   
    42    17    43 1   
    43    18    23 1   
    44    18    44 1   
    45    18    45 1   
    46    18    46 1   
    47    19    47 1   
    48    20    21 ar  
    49    20    24 ar  
    50    20    50 1   
    51    21    51 1   
    52    22    52 1   
    53    28    72 1   
    54    48    72 1   
    55    49    72 1   
    56    53    54 1   
    57    53    60 1   
    58    53    61 1   
    59    53    72 1   
    60    54    55 1   
    61    54    59 1   
    62    55    56 1   
    63    55    62 1   
    64    55    63 1   
    65    56    57 1   
    66    56    64 1   
    67    56    65 1   
    68    57    58 1   
    69    57    66 1   
    70    57    67 1   
    71    58    59 1   
    72    58    68 1   
    73    58    69 1   
    74    59    70 1   
    75    59    71 1   
@<TRIPOS>SUBSTRUCTURE
     1 HZM         1 TEMP              0 ****  ****    0 ROOT
