@<TRIPOS>MOLECULE
HZN
    8     7     1     0     0
SMALL
bcc


@<TRIPOS>ATOM
      1 N2           0.0000     0.0000     0.0000 nz         1 HZN       0.054600
      2 N1           1.4540     0.0000     0.0000 nz         1 HZN       0.054600
      3 H1          -0.3340     0.0000     0.9440 hn         1 HZN       0.314800
      4 H2          -0.3340    -0.8170    -0.4720 hn         1 HZN       0.314800
      5 H3           1.7880     0.8170     0.4720 hn         1 HZN       0.314800
      6 H4           1.7880    -0.0000    -0.9440 hn         1 HZN       0.314800
      7 H23         -0.3340     0.8170    -0.4720 hn         1 HZN       0.314800
      8 H13          1.7880    -0.8170     0.4720 hn         1 HZN       0.314800
@<TRIPOS>BOND
     1     1     2 1   
     2     1     3 1   
     3     1     4 1   
     4     1     7 1   
     5     2     5 1   
     6     2     6 1   
     7     2     8 1   
@<TRIPOS>SUBSTRUCTURE
     1 HZN         1 TEMP              0 ****  ****    0 ROOT
