@<TRIPOS>MOLECULE
molecule
   72    75     1     0     0
SMALL
bcc


@<TRIPOS>ATOM
      1 C02          0.0000     0.0000     0.0000 c          1 HZV       0.879200
      2 C04          1.4770     0.0000     0.0000 ca         1 HZV      -0.043600
      3 C05          2.2010     0.0000     1.2110 ca         1 HZV      -0.116400
      4 C06          3.6010    -0.0010     1.1740 ca         1 HZV       0.412100
      5 C07          4.1730    -0.0010     2.5100 cc         1 HZV      -0.232800
      6 C08          3.2920     0.0000     3.4920 cd         1 HZV      -0.122600
      7 C09          3.6540     0.0010     4.9560 c3         1 HZV       0.267600
      8 C10          3.5350     1.4010     5.5010 ca         1 HZV      -0.062300
      9 C11          2.3120     1.8690     5.9430 ca         1 HZV      -0.102000
     10 C12          2.1990     3.1520     6.4450 ca         1 HZV      -0.118000
     11 C13          3.3090     3.9710     6.5040 ca         1 HZV      -0.166000
     12 C14          4.5390     3.5060     6.0610 ca         1 HZV       0.043600
     13 C16          6.6230     4.2360     5.1770 c          1 HZV       0.647100
     14 C17          7.8910     5.0410     5.3030 c3         1 HZV      -0.159400
     15 C18          8.8030     4.7470     4.1110 c3         1 HZV      -0.066400
     16 C19         10.0890     5.5660     4.2390 c3         1 HZV       0.158800
     17 C21         10.3680     5.7680     1.8430 c3         1 HZV       0.150100
     18 C22         12.3010     5.8620     3.2980 c3         1 HZV       0.150100
     19 C24          4.6500     2.2140     5.5640 ca         1 HZV      -0.094000
     20 C27          2.1930    -3.0470     6.5310 c3         1 HZV       0.165800
     21 C29         -0.1390    -3.6890     6.5860 c3         1 HZV       0.163800
     22 C30         -1.4620    -3.6020     5.8220 c3         1 HZV      -0.077900
     23 C31         -1.3300    -4.3590     4.4960 c3         1 HZV      -0.081400
     24 C32         -0.1720    -3.7640     3.6910 c3         1 HZV      -0.077900
     25 C33          1.1130    -3.8460     4.5180 c3         1 HZV       0.163800
     26 C36          3.5770    -0.0090    -1.1540 ca         1 HZV       0.390200
     27 C37          2.1920    -0.0070    -1.1980 ca         1 HZV      -0.223300
     28 N15          5.6650     4.3340     6.1200 ns         1 HZV      -0.482100
     29 N20         10.9660     5.2830     3.0950 n3         1 HZV      -0.727600
     30 N28          0.9360    -3.1060     5.7740 n3         1 HZV      -0.706600
     31 N35          4.2260    -0.0030    -0.0160 nb         1 HZV      -0.700000
     32 O01         -0.6070     0.0020     1.0520 o          1 HZV      -0.824800
     33 O03         -0.6730     0.0050    -1.1670 o          1 HZV      -0.824800
     34 O23          6.4650     3.4990     4.2260 o          1 HZV      -0.564100
     35 O25          2.7650    -0.8630     5.6650 os         1 HZV      -0.403600
     36 S34          1.6500     0.0020     2.8800 ss         1 HZV       0.042500
     37 H1           5.2410    -0.0030     2.6860 ha         1 HZV       0.139000
     38 H2           4.6720    -0.3490     5.0770 h1         1 HZV       0.041700
     39 H3           1.4390     1.2290     5.8960 ha         1 HZV       0.160000
     40 H4           1.2380     3.5170     6.7850 ha         1 HZV       0.129000
     41 H5           3.2250     4.9670     6.9230 ha         1 HZV       0.118000
     42 H6           8.3990     4.7730     6.2220 hc         1 HZV       0.053700
     43 H7           7.6470     6.0970     5.3210 hc         1 HZV       0.053700
     44 H8           8.2950     5.0150     3.1920 hc         1 HZV       0.070700
     45 H9           9.0470     3.6920     4.0940 hc         1 HZV       0.070700
     46 H10          9.8460     6.6210     4.2560 h1         1 HZV       0.026200
     47 H11         10.5970     5.2980     5.1580 h1         1 HZV       0.026200
     48 H12          9.7280     6.6160     2.0530 h1         1 HZV       0.031533
     49 H13         11.1530     6.0680     1.1600 h1         1 HZV       0.031533
     50 H14          9.7820     4.9760     1.3930 h1         1 HZV       0.031533
     51 H15         12.2170     6.9370     3.4020 h1         1 HZV       0.031533
     52 H16         12.7420     5.4460     4.1960 h1         1 HZV       0.031533
     53 H17         12.9290     5.6300     2.4460 h1         1 HZV       0.031533
     54 H18          5.5890     1.6900     5.7000 ha         1 HZV       0.134000
     55 H19          3.3330    -2.6250     4.7580 h1         1 HZV       0.026200
     56 H20          4.1700    -2.2450     6.2700 h1         1 HZV       0.026200
     57 H21          2.5760    -4.0500     6.6750 h1         1 HZV       0.032200
     58 H22          2.0120    -2.5880     7.4950 h1         1 HZV       0.032200
     59 H23         -0.2250    -3.1410     7.5160 h1         1 HZV       0.025700
     60 H24          0.0890    -4.7280     6.7930 h1         1 HZV       0.025700
     61 H25         -1.6960    -2.5640     5.6230 hc         1 HZV       0.057450
     62 H26         -2.2510    -4.0490     6.4150 hc         1 HZV       0.057450
     63 H27         -1.1310    -5.4050     4.6960 hc         1 HZV       0.033700
     64 H28         -2.2490    -4.2610     3.9320 hc         1 HZV       0.033700
     65 H29         -0.3880    -2.7280     3.4620 hc         1 HZV       0.057450
     66 H30         -0.0460    -4.3250     2.7730 hc         1 HZV       0.057450
     67 H31          1.3320    -4.8840     4.7390 h1         1 HZV       0.025700
     68 H32          1.9300    -3.4110     3.9560 h1         1 HZV       0.025700
     69 H33          4.1360    -0.0140    -2.0820 h4         1 HZV      -0.000900
     70 H34          1.6730    -0.0120    -2.1480 ha         1 HZV       0.161000
     71 H35          5.7770     4.9730     6.8820 hn         1 HZV       0.313500
     72 C26          3.2180    -2.2160     5.7550 c3         1 HZV       0.141400
@<TRIPOS>BOND
     1    22    23 1
     2    22    21 1
     3    23    24 1
     4    21    30 1
     5    24    25 1
     6    30    25 1
     7    30    20 1
     8    20    72 1
     9    72    35 1
    10    35     7 1
    11     5     6 2
    12     5     4 1
    13     7     6 1
    14     7     8 1
    15    31     4 ar
    16    31    26 ar
    17     6    36 1
    18     4     3 ar
    19     8    19 ar
    20     8     9 ar
    21    34    13 2
    22    26    27 ar
    23    19    12 ar
    24    13    14 1
    25    13    28 1
    26     9    10 ar
    27     3    36 1
    28     3     2 ar
    29    14    15 1
    30    12    28 1
    31    12    11 ar
    32    27     2 ar
    33    10    11 ar
    34    15    16 1
    35     2     1 1
    36    16    29 1
    37     1    32 1
    38     1    33 1
    39    29    17 1
    40    29    18 1
    41     5    37 1
    42     7    38 1
    43     9    39 1
    44    10    40 1
    45    11    41 1
    46    14    42 1
    47    14    43 1
    48    15    44 1
    49    15    45 1
    50    16    46 1
    51    16    47 1
    52    17    48 1
    53    17    49 1
    54    17    50 1
    55    18    51 1
    56    18    52 1
    57    18    53 1
    58    19    54 1
    59    72    55 1
    60    72    56 1
    61    20    57 1
    62    20    58 1
    63    21    59 1
    64    21    60 1
    65    22    61 1
    66    22    62 1
    67    23    63 1
    68    23    64 1
    69    24    65 1
    70    24    66 1
    71    25    67 1
    72    25    68 1
    73    26    69 1
    74    27    70 1
    75    28    71 1
@<TRIPOS>SUBSTRUCTURE
     1 HZV         1 TEMP              0 ****  ****    0 ROOT
