@<TRIPOS>MOLECULE
molecule
   27    28     1     0     0
SMALL
bcc


@<TRIPOS>ATOM
      1 N3           0.0000     0.0000     0.0000 nc         1 O01      -0.684000
      2 C4           1.2920     0.0000     0.0000 cd         1 O01       0.499700
      3 C6           2.1520    -0.0010    -1.2370 c3         1 O01      -0.121400
      4 C7          -2.1020     0.0010     1.3170 c3         1 O01      -0.125400
      5 C8          -0.1540     0.0000     3.6530 cd         1 O01       0.470800
      6 C1           0.2380     0.0000     2.2260 cd         1 O01      -0.253900
      7 C11         -0.0230     0.0070     5.8800 cc         1 O01      -0.195600
      8 C12          0.7240     0.0010     4.7550 cd         1 O01      -0.269300
      9 C2          -0.6020     0.0010     1.1700 cc         1 O01       0.450600
     10 N10         -1.3240     0.0110     5.5170 na         1 O01      -0.037600
     11 N14          0.5530    -1.3700     7.7970 nz         1 O01      -0.813600
     12 N9          -1.3870     0.0070     4.1180 nc         1 O01      -0.438800
     13 S5           1.8870     0.0000     1.6020 ss         1 O01      -0.194300
     14 H1           1.9430    -0.8890    -1.8220 hc         1 O01       0.069700
     15 H2           1.9340     0.8800    -1.8290 hc         1 O01       0.069700
     16 H3           3.1960     0.0060    -0.9510 hc         1 O01       0.069700
     17 H4          -2.4110    -0.8830     1.8620 hc         1 O01       0.063700
     18 H5          -2.5610    -0.0010     0.3360 hc         1 O01       0.063700
     19 H6          -2.4110     0.8860     1.8590 hc         1 O01       0.063700
     20 H7          -0.1550     0.5990     7.9200 hx         1 O01       0.120700
     21 H8           1.4960     0.4370     7.3070 hx         1 O01       0.120700
     22 H9           1.8050     0.0600     4.7080 ha         1 O01       0.172000
     23 H10         -2.1070     0.0160     6.1400 hn         1 O01       0.337700
     24 H11          1.0910    -1.9350     7.1710 hn         1 O01       0.459133
     25 H12          0.9920    -1.3590     8.6970 hn         1 O01       0.459133
     26 C13          0.5010     0.0090     7.2920 c3         1 O01       0.182100
     27 H143        -0.3690    -1.7490     7.8810 hn         1 O01       0.459133
@<TRIPOS>BOND
     1     3     2 1
     2     1     2 2
     3     1     9 1
     4     2    13 1
     5     9     4 1
     6     9     6 2
     7    13     6 1
     8     6     5 1
     9     5     8 1
    10     5    12 2
    11     8     7 2
    12    12    10 1
    13     7    10 1
    14     7    26 1
    15    26    11 1
    16     3    14 1
    17     3    15 1
    18     3    16 1
    19     4    17 1
    20     4    18 1
    21     4    19 1
    22    26    20 1
    23    26    21 1
    24     8    22 1
    25    10    23 1
    26    11    24 1
    27    11    25 1
    28    27    11 1
@<TRIPOS>SUBSTRUCTURE
     1 O01         1 TEMP              0 ****  ****    0 ROOT
