@<TRIPOS>MOLECULE
O04
   36    38     1     0     0
SMALL
bcc


@<TRIPOS>ATOM
      1 C1           0.0000     0.0000     0.0000 c2         1 O04      -0.291000
      2 N1           1.3780     0.0000     0.0000 nz         1 O04       0.889000
      3 O1          -4.8680     0.0100     6.1880 os         1 O04      -0.138000
      4 C2          -0.7400     0.0000     1.2820 c2         1 O04      -0.111000
      5 N2          -4.1590     0.0040     4.9620 n2         1 O04       0.140000
      6 O2          -6.7620     1.3570     5.9830 os         1 O04      -0.279000
      7 C3          -2.1360     0.0000     1.2820 c2         1 O04      -0.067000
      8 N3          -0.6520     0.0060    -1.1280 n2         1 O04       0.074000
      9 C4          -2.8260     0.0000     2.4740 c2         1 O04      -0.057000
     10 C5          -2.1270    -0.0010     3.6840 c3         1 O04      -0.080000
     11 C6          -2.8650     0.0050     4.9620 c2         1 O04      -0.352000
     12 C7          -6.2890     0.0100     6.0390 c3         1 O04       0.206000
     13 C8          -8.1760     1.4710     5.8080 c3         1 O04       0.079000
     14 C9          -8.8910     0.8140     6.9920 c3         1 O04      -0.150000
     15 C10         -8.4520    -0.6490     7.0950 c3         1 O04      -0.093000
     16 C11         -6.9270    -0.7060     7.2320 c3         1 O04      -0.139000
     17 C12         -0.7300    -0.0010     3.6830 c2         1 O04      -0.057000
     18 C13         -0.0430    -0.0060     2.4910 c2         1 O04      -0.067000
     19 HN1          1.7120    -0.8180     0.4700 hn         1 O04       0.022667
     20 HN1A         1.7120     0.8170     0.4730 hn         1 O04       0.022667
     21 H3          -2.6780     0.0010     0.3440 ha         1 O04       0.107500
     22 HN3         -0.1530     0.0080    -1.9960 hn         1 O04       0.093000
     23 H4          -3.9090     0.0000     2.4740 ha         1 O04       0.142500
     24 H6          -2.7190    -0.8730     4.3430 DU         1 O04       0.282000
     25 H7          -6.5600    -0.5040     5.1250 h2         1 O04       0.041000
     26 H8          -8.4490     2.5180     5.7590 h1         1 O04       0.050500
     27 H8A         -8.4660     0.9720     4.8910 h1         1 O04       0.050500
     28 H9          -9.9620     0.8600     6.8370 hc         1 O04       0.071000
     29 H9A         -8.6290     1.3350     7.9050 hc         1 O04       0.071000
     30 H10         -8.9100    -1.1030     7.9660 hc         1 O04       0.060000
     31 H10A        -8.7540    -1.1810     6.2010 hc         1 O04       0.060000
     32 H11         -6.6280    -0.2150     8.1500 hc         1 O04       0.074000
     33 H11A        -6.6040    -1.7400     7.2470 hc         1 O04       0.074000
     34 H12         -0.1880    -0.0040     4.6210 ha         1 O04       0.142500
     35 H13          1.0410    -0.0060     2.4900 ha         1 O04       0.107500
     36 H131         1.7120     0.0010    -0.9440 hn         1 O04       0.022667
@<TRIPOS>BOND
     1     1     2 1   
     2     1     4 1   
     3     1     8 1   
     4     2    19 1   
     5     2    20 1   
     6     2    36 1   
     7     3     5 1   
     8     3    12 1   
     9     4     7 1   
    10     4    18 1   
    11     5    11 1   
    12     6    12 1   
    13     6    13 1   
    14     7     9 1   
    15     7    21 1   
    16     8    22 1   
    17     9    10 1   
    18     9    23 1   
    19    10    11 1   
    20    10    17 1   
    21    10    24 1   
    22    11    24 1   
    23    12    16 1   
    24    12    25 1   
    25    13    14 1   
    26    13    26 1   
    27    13    27 1   
    28    14    15 1   
    29    14    28 1   
    30    14    29 1   
    31    15    16 1   
    32    15    30 1   
    33    15    31 1   
    34    16    32 1   
    35    16    33 1   
    36    17    18 1   
    37    17    34 1   
    38    18    35 1   
@<TRIPOS>SUBSTRUCTURE
     1 O04         1 TEMP              0 ****  ****    0 ROOT
