@<TRIPOS>MOLECULE
molecule
   36    37     1     0     0
SMALL
bcc


@<TRIPOS>ATOM
      1 C1           0.0000     0.0000     0.0000 ce         1 O04       0.520800
      2 N1           1.3780     0.0000     0.0000 nz         1 O04      -0.741600
      3 O1          -4.8680     0.0100     6.1880 os         1 O04      -0.163300
      4 C2          -0.7400     0.0000     1.2820 ca         1 O04      -0.239900
      5 N2          -4.1590     0.0040     4.9620 n2         1 O04      -0.399200
      6 O2          -6.7620     1.3570     5.9830 os         1 O04      -0.442600
      7 C3          -2.1360     0.0000     1.2820 ca         1 O04      -0.101000
      8 N3          -0.6520     0.0060    -1.1280 n2         1 O04      -0.724100
      9 C4          -2.8260     0.0000     2.4740 ca         1 O04      -0.085000
     10 C5          -2.1270    -0.0010     3.6840 ca         1 O04      -0.053900
     11 C6          -2.8650     0.0050     4.9620 ce         1 O04       0.392800
     12 C7          -6.2890     0.0100     6.0390 c3         1 O04       0.353900
     13 C8          -8.1760     1.4710     5.8080 c3         1 O04       0.150400
     14 C9          -8.8910     0.8140     6.9920 c3         1 O04      -0.123400
     15 C10         -8.4520    -0.6490     7.0950 c3         1 O04      -0.078400
     16 C11         -6.9270    -0.7060     7.2320 c3         1 O04      -0.104400
     17 C12         -0.7300    -0.0010     3.6830 ca         1 O04      -0.085000
     18 C13         -0.0430    -0.0060     2.4910 ca         1 O04      -0.101000
     19 HN1          1.7120     0.0020    -0.9440 hn         1 O04       0.473467
     20 HN1A         1.7120     0.8160     0.4730 hn         1 O04       0.473467
     21 H3          -2.6780     0.0010     0.3440 ha         1 O04       0.125500
     22 HN3         -1.6530     0.0080    -1.1290 hn         1 O04       0.483400
     23 H4          -3.9090     0.0000     2.4740 ha         1 O04       0.173500
     24 H6          -2.3240     0.0090     5.9000 h4         1 O04       0.020800
     25 H7          -6.5600    -0.5040     5.1250 h2         1 O04       0.044700
     26 H8          -8.4490     2.5180     5.7590 h1         1 O04       0.051200
     27 H8A         -8.4660     0.9720     4.8910 h1         1 O04       0.051200
     28 H9          -8.6290     1.3350     7.9050 hc         1 O04       0.060700
     29 H9A         -9.9620     0.8600     6.8370 hc         1 O04       0.060700
     30 H10         -8.9100    -1.1030     7.9660 hc         1 O04       0.052200
     31 H10A        -8.7540    -1.1810     6.2010 hc         1 O04       0.052200
     32 H11         -6.6280    -0.2150     8.1500 hc         1 O04       0.064700
     33 H11A        -6.6040    -1.7400     7.2470 hc         1 O04       0.064700
     34 H12         -0.1880    -0.0040     4.6210 ha         1 O04       0.173500
     35 H13          1.0410    -0.0060     2.4900 ha         1 O04       0.125500
     36 H131         1.7120    -0.8180     0.4700 hn         1 O04       0.473467
@<TRIPOS>BOND
     1    14    15 1
     2    14    13 1
     3    15    16 1
     4    13     6 1
     5    16    12 1
     6     6    12 1
     7    12     3 1
     8     3     5 1
     9     5    11 2
    10    11    10 1
    11    10    17 ar
    12    10     9 ar
    13    17    18 ar
    14     9     7 ar
    15    18     4 ar
    16     7     4 ar
    17     4     1 1
    18     1     2 1
    19     1     8 2
    20     2    19 1
    21     2    20 1
    22     7    21 1
    23     8    22 1
    24     9    23 1
    25    11    24 1
    26    12    25 1
    27    13    26 1
    28    13    27 1
    29    14    28 1
    30    14    29 1
    31    15    30 1
    32    15    31 1
    33    16    32 1
    34    16    33 1
    35    17    34 1
    36    18    35 1
    37    36     2 1
@<TRIPOS>SUBSTRUCTURE
     1 O04         1 TEMP              0 ****  ****    0 ROOT
