@<TRIPOS>MOLECULE
O09
   27    28     1     0     0
SMALL
bcc


@<TRIPOS>ATOM
      1 C1           0.0000     0.0000     0.0000 c2         1 O09      -0.275000
      2 N1           1.3780     0.0000     0.0000 nz         1 O09       0.889000
      3 O1          -2.9240    -0.0030     7.3100 os         1 O09      -0.067000
      4 C2          -0.7400     0.0000     1.2830 c2         1 O09      -0.108000
      5 N2          -2.2170    -0.0040     6.0830 n2         1 O09       0.125000
      6 O2          -2.3590    -0.0130    10.9190 o          1 O09      -0.592000
      7 C3          -2.1360     0.0060     1.2820 c2         1 O09      -0.087000
      8 N3          -0.6530     0.0060    -1.1280 n2         1 O09       0.037000
      9 O3          -4.1420    -0.0030     9.6130 o          1 O09      -0.592000
     10 C4          -2.8250     0.0070     2.4750 c2         1 O09      -0.107500
     11 C5          -2.1260     0.0020     3.6840 c3         1 O09      -0.034000
     12 C6          -2.8640     0.0020     4.9620 c2         1 O09      -0.340000
     13 C7          -2.0830    -0.0090     8.4660 c3         1 O09      -0.029000
     14 C8          -2.9370    -0.0090     9.7070 c2         1 O09       0.392000
     15 C9          -0.7290    -0.0050     3.6840 c2         1 O09      -0.107500
     16 C10         -0.0420    -0.0110     2.4910 c2         1 O09      -0.087000
     17 HN1          1.7120    -0.8190     0.4680 hn         1 O09       0.018000
     18 HN1A         1.7120     0.8150     0.4760 hn         1 O09       0.018000
     19 H3          -2.8450     0.0150     0.4640 ha         1 O09       0.121500
     20 HN3         -0.1540     0.0080    -1.9950 hn         1 O09       0.083000
     21 H4          -3.9080     0.0390     2.4750 ha         1 O09       0.143000
     22 H6          -2.4020    -0.8740     4.5230 DU         1 O09       0.229000
     23 H7          -1.4620    -0.8960     8.4550 h1         1 O09       0.043500
     24 H7A         -1.4540     0.8730     8.4600 h1         1 O09       0.043500
     25 H9          -0.1870     0.0400     4.6210 ha         1 O09       0.143000
     26 H10          1.0000    -0.0170     2.7870 ha         1 O09       0.121500
     27 H13          1.7110     0.0050    -0.9440 hn         1 O09       0.018000
@<TRIPOS>BOND
     1     1     2 1   
     2     1     4 1   
     3     1     8 1   
     4     2    17 1   
     5     2    18 1   
     6     2    27 1   
     7     3     5 1   
     8     3    13 1   
     9     4     7 1   
    10     4    16 1   
    11     5    12 1   
    12     6    14 1   
    13     7    10 1   
    14     7    19 1   
    15     8    20 1   
    16     9    14 1   
    17    10    11 1   
    18    10    21 1   
    19    11    12 1   
    20    11    15 1   
    21    11    22 1   
    22    12    22 1   
    23    13    14 1   
    24    13    23 1   
    25    13    24 1   
    26    15    16 1   
    27    15    25 1   
    28    16    26 1   
@<TRIPOS>SUBSTRUCTURE
     1 O09         1 TEMP              0 ****  ****    0 ROOT
