@<TRIPOS>MOLECULE
molecule
   27    27     1     0     0
SMALL
bcc


@<TRIPOS>ATOM
      1 C1           0.0000     0.0000     0.0000 ce         1 O09       0.529800
      2 N1           1.3780     0.0000     0.0000 nz         1 O09      -0.739600
      3 O1          -2.9240    -0.0030     7.3100 os         1 O09      -0.123300
      4 C2          -0.7400     0.0000     1.2830 ca         1 O09      -0.223900
      5 N2          -2.2170    -0.0040     6.0830 n2         1 O09      -0.406200
      6 O2          -2.3590    -0.0130    10.9190 o          1 O09      -0.810300
      7 C3          -2.1360     0.0060     1.2820 ca         1 O09      -0.133000
      8 N3          -0.6530     0.0060    -1.1280 n2         1 O09      -0.754100
      9 O3          -4.1420    -0.0030     9.6130 o          1 O09      -0.810300
     10 C4          -2.8250     0.0070     2.4750 ca         1 O09      -0.116000
     11 C5          -2.1260     0.0020     3.6840 ca         1 O09      -0.019900
     12 C6          -2.8640     0.0020     4.9620 ce         1 O09       0.330800
     13 C7          -2.0830    -0.0090     8.4660 c3         1 O09       0.015400
     14 C8          -2.9370    -0.0090     9.7070 c          1 O09       0.895600
     15 C9          -0.7290    -0.0050     3.6840 ca         1 O09      -0.116000
     16 C10         -0.0420    -0.0110     2.4910 ca         1 O09      -0.133000
     17 HN1          1.7120    -0.8200     0.4660 hn         1 O09       0.469800
     18 HN1A         1.7110     0.0060    -0.9440 hn         1 O09       0.469800
     19 H3          -2.9110     0.0070     0.5260 ha         1 O09       0.147500
     20 HN3         -1.6530     0.0080    -1.1280 hn         1 O09       0.480400
     21 H4          -3.9080     0.0240     2.4750 ha         1 O09       0.172500
     22 H6          -3.9470     0.0080     4.9630 h4         1 O09       0.018800
     23 H7          -1.4620    -0.8960     8.4550 h1         1 O09       0.032700
     24 H7A         -1.4540     0.8730     8.4600 h1         1 O09       0.032700
     25 H9          -0.1860     0.0340     4.6210 ha         1 O09       0.172500
     26 H10          0.9970    -0.0270     2.7980 ha         1 O09       0.147500
     27 H13          1.7120     0.8140     0.4770 hn         1 O09       0.469800
@<TRIPOS>BOND
     1     9    14 1
     2    14     6 1
     3    14    13 1
     4    13     3 1
     5     3     5 1
     6     5    12 2
     7    12    11 1
     8    11    10 ar
     9    11    15 ar
    10    10     7 ar
    11    15    16 ar
    12     7     4 ar
    13    16     4 ar
    14     4     1 1
    15     2     1 1
    16     1     8 2
    17     2    17 1
    18     2    18 1
    19     7    19 1
    20     8    20 1
    21    10    21 1
    22    12    22 1
    23    13    23 1
    24    13    24 1
    25    15    25 1
    26    16    26 1
    27    27     2 1
@<TRIPOS>SUBSTRUCTURE
     1 O09         1 TEMP              0 ****  ****    0 ROOT
