@<TRIPOS>MOLECULE
molecule
   69    70     1     0     0
SMALL
bcc


@<TRIPOS>ATOM
      1 C14          0.0000     0.0000     0.0000 ca         1 O11      -0.090000
      2 C13          1.3820     0.0000     0.0000 ca         1 O11      -0.110300
      3 C1          -4.1950    -3.1160    -6.6210 c3         1 O11       0.120400
      4 C6           1.1250     0.7130    -3.4830 ca         1 O11      -0.090000
      5 C5           0.2420     0.5280    -4.5310 ca         1 O11      -0.192500
      6 C4          -0.6020    -0.5730    -4.5370 ca         1 O11       0.142100
      7 C3          -2.3100    -1.9130    -5.5090 c3         1 O11       0.137400
      8 C2          -3.2120    -1.9500    -6.7430 c3         1 O11       0.152100
      9 C7           1.1670    -0.1980    -2.4440 ca         1 O11      -0.110300
     10 O02         -2.4110    -2.1240    -7.9140 oh         1 O11      -0.590800
     11 C9          -0.5580    -1.4860    -3.4940 ca         1 O11      -0.192500
     12 C8           0.3220    -1.2920    -2.4460 ca         1 O11      -0.090000
     13 C10          2.1340     0.0030    -1.3070 c3         1 O11       0.040600
     14 C11          2.8530     1.3430    -1.4790 c3         1 O11      -0.070900
     15 C25          1.8490     2.4850    -1.3130 c3         1 O11      -0.097100
     16 C12          3.1620    -1.1310    -1.3060 c3         1 O11      -0.070900
     17 C26          4.0010    -1.0600    -2.5830 c3         1 O11      -0.097100
     18 C15         -0.6920    -0.0020     1.1960 ca         1 O11      -0.191500
     19 C18          2.0760     0.0000     1.1950 ca         1 O11      -0.090000
     20 C17          1.3890    -0.0020     2.3940 ca         1 O11      -0.191500
     21 C16          0.0020    -0.0030     2.3970 ca         1 O11       0.143100
     22 O04         -0.6750    -0.0050     3.5740 os         1 O11      -0.331900
     23 C19          0.1040    -0.0050     4.7720 c3         1 O11       0.123400
     24 C20         -0.8260    -0.0060     5.9870 c3         1 O11       0.160100
     25 O05         -1.5690     1.2150     6.0200 oh         1 O11      -0.597800
     26 C21          0.0050    -0.1330     7.2650 c3         1 O11      -0.078000
     27 C22         -0.9260    -0.1340     8.4800 c3         1 O11      -0.084100
     28 C23          0.7990    -1.4400     7.2300 c3         1 O11      -0.084100
     29 C24          0.9710     1.0480     7.3650 c3         1 O11      -0.084100
     30 H1          -0.5410     0.0000    -0.9380 ha         1 O11       0.140500
     31 H2          -4.7410    -3.0320    -5.6900 h1         1 O11       0.031200
     32 H3          -3.6490    -4.0520    -6.6360 h1         1 O11       0.031200
     33 H4           1.7860     1.5710    -3.4780 ha         1 O11       0.143000
     34 H5           0.2090     1.2420    -5.3450 ha         1 O11       0.138500
     35 H6          -2.9210    -1.8700    -4.6150 h1         1 O11       0.044700
     36 H7          -1.6950    -2.8040    -5.4830 h1         1 O11       0.044700
     37 H8          -3.7620    -1.0200    -6.8160 h1         1 O11       0.054700
     38 H9          -5.8370    -3.6600    -7.5370 ho         1 O11       0.407000
     39 H10         -2.7430    -1.5770    -8.6060 ho         1 O11       0.414000
     40 H11         -1.2180    -2.3450    -3.4960 ha         1 O11       0.138500
     41 H12          0.3570    -2.0050    -1.6310 ha         1 O11       0.143000
     42 H13          3.2960     1.3910    -2.4660 hc         1 O11       0.044700
     43 H14          3.6310     1.4340    -0.7300 hc         1 O11       0.044700
     44 H15          1.9620     2.9250    -0.3300 hc         1 O11       0.037367
     45 H16          0.8430     2.1010    -1.4240 hc         1 O11       0.037367
     46 H17          2.0330     3.2390    -2.0690 hc         1 O11       0.037367
     47 H18          3.8090    -1.0310    -0.4420 hc         1 O11       0.044700
     48 H19          2.6480    -2.0840    -1.2640 hc         1 O11       0.044700
     49 H20          4.7110    -0.2450    -2.5040 hc         1 O11       0.037367
     50 H21          4.5360    -1.9930    -2.7160 hc         1 O11       0.037367
     51 H22          3.3510    -0.8920    -3.4330 hc         1 O11       0.037367
     52 H23         -1.7750    -0.0020     1.1960 ha         1 O11       0.137000
     53 H24          3.1600     0.0000     1.1920 ha         1 O11       0.140500
     54 H25          1.9340    -0.0020     3.3310 ha         1 O11       0.137000
     55 H26          0.7280     0.8810     4.7960 h1         1 O11       0.047700
     56 H27          0.7300    -0.8880     4.7950 h1         1 O11       0.047700
     57 H28         -1.5110    -0.8430     5.9160 h1         1 O11       0.043700
     58 H29         -2.4910     1.0240     5.9650 ho         1 O11       0.407000
     59 H30         -1.6790    -0.9030     8.3580 hc         1 O11       0.039033
     60 H31         -0.3510    -0.3320     9.3760 hc         1 O11       0.039033
     61 H32         -1.4080     0.8330     8.5660 hc         1 O11       0.039033
     62 H33          1.1020    -1.7060     8.2350 hc         1 O11       0.039033
     63 H34          1.6770    -1.3130     6.6090 hc         1 O11       0.039033
     64 H35          0.1790    -2.2280     6.8200 hc         1 O11       0.039033
     65 H36          1.3290     1.1370     8.3840 hc         1 O11       0.039033
     66 H37          0.4570     1.9600     7.0820 hc         1 O11       0.039033
     67 H38          1.8100     0.8860     6.7000 hc         1 O11       0.039033
     68 O03         -1.4710    -0.7580    -5.5660 os         1 O11      -0.322900
     69 O01         -5.1130    -3.0830    -7.7160 oh         1 O11      -0.607800
@<TRIPOS>BOND
     1    69     3 1
     2     3     8 1
     3    10     8 1
     4     8     7 1
     5     7    68 1
     6    68     6 1
     7     6     5 ar
     8     6    11 ar
     9     5     4 ar
    10    11    12 ar
    11     4     9 ar
    12    12     9 ar
    13     9    13 1
    14    17    16 1
    15    13    16 1
    16    13     2 1
    17    13    14 1
    18     1     2 ar
    19     1    18 ar
    20     2    19 ar
    21    27    26 1
    22    14    15 1
    23    18    21 ar
    24    28    26 1
    25    19    20 ar
    26    21    20 ar
    27    21    22 1
    28    26    24 1
    29    26    29 1
    30    23    22 1
    31    23    24 1
    32    25    24 1
    33     1    30 1
    34     3    31 1
    35     3    32 1
    36     4    33 1
    37     5    34 1
    38     7    35 1
    39     7    36 1
    40     8    37 1
    41    69    38 1
    42    10    39 1
    43    11    40 1
    44    12    41 1
    45    14    42 1
    46    14    43 1
    47    15    44 1
    48    15    45 1
    49    15    46 1
    50    16    47 1
    51    16    48 1
    52    17    49 1
    53    17    50 1
    54    17    51 1
    55    18    52 1
    56    19    53 1
    57    20    54 1
    58    23    55 1
    59    23    56 1
    60    24    57 1
    61    25    58 1
    62    27    59 1
    63    27    60 1
    64    27    61 1
    65    28    62 1
    66    28    63 1
    67    28    64 1
    68    29    65 1
    69    29    66 1
    70    29    67 1
@<TRIPOS>SUBSTRUCTURE
     1 O11         1 TEMP              0 ****  ****    0 ROOT
