@<TRIPOS>MOLECULE
O11
   69    66     1     0     0
SMALL
bcc


@<TRIPOS>ATOM
      1 C14        -0.7240   -0.1420    1.5300 c2        1 O11      0.081700
      2 C13        -0.0820   -0.9740    0.4570 c3        1 O11     -0.004100
      3 C1         -1.6370   -3.7120   -8.0260 c3        1 O11      0.179600
      4 C6         -0.2550    0.8780   -2.9220 ce        1 O11     -0.116000
      5 C5         -1.0920    1.1800   -3.9220 c2        1 O11     -0.173200
      6 C4         -2.5080    0.6970   -3.9440 c3        1 O11      0.201500
      7 C3         -2.3890   -2.9250   -5.7530 c2        1 O11     -0.337000
      8 C2         -1.8630   -2.6800   -6.9600 c2        1 O11      0.050900
      9 C7         -0.6380    0.0000   -1.8160 ce        1 O11     -0.043000
     10 O02        -1.4330   -1.4420   -7.3810 oh        1 O11     -0.532100
     11 C9         -2.7490   -0.4240   -2.9830 c2        1 O11     -0.173200
     12 C8         -1.8970   -0.7150   -1.9910 ce        1 O11     -0.116000
     13 C10         0.1630   -0.1120   -0.7380 c2        1 O11     -0.143200
     14 C11         4.9080    2.1010   -1.9320 c2        1 O11     -0.221000
     15 C25         3.9540    1.2070   -2.1800 c2        1 O11     -0.168200
     16 C12         3.4980   -1.2290   -2.1250 c3        1 O11     -0.094100
     17 C26         4.1880   -0.0970   -2.8470 c3        1 O11     -0.054200
     18 C15        -1.9680   -0.2650    1.8980 c1        1 O11     -0.422900
     19 C18         1.2020   -1.5800    0.9250 c2        1 O11     -0.174200
     20 C17         1.5180   -1.7990    2.1990 c2        1 O11     -0.213000
     21 C16        -3.1880   -0.4060    2.2240 c1        1 O11      0.571500
     22 O04        -4.3320   -0.5150    2.5500 o         1 O11     -0.402500
     23 C19        -0.2740   -0.5140    5.2140 c2        1 O11     -0.359000
     24 C20        -0.1880    0.4550    6.1370 c2        1 O11      0.101900
     25 O05        -0.7800    1.6920    5.9690 oh        1 O11     -0.512100
     26 C21         0.5370    0.3820    7.4590 c3        1 O11     -0.005800
     27 C22        -0.4640    0.6120    8.5860 c3        1 O11     -0.086433
     28 C23         1.1970   -0.9760    7.6450 c3        1 O11     -0.086433
     29 C24         1.6050    1.4700    7.4990 c3        1 O11     -0.086433
     30 H1         -0.0580    0.6070    2.0020 ha        1 O11      0.130000
     31 H2         -0.5540   -4.0180   -8.0080 h1        1 O11      0.056700
     32 H3         -2.2890   -4.6090   -7.8490 h1        1 O11      0.056700
     33 H4         -3.1840    1.5620   -3.6600 h1        1 O11      0.057700
     34 H5         -0.7950    1.8080   -4.7760 ha        1 O11      0.140000
     35 H6         -2.5070   -2.1370   -4.9980 ha        1 O11      0.126000
     36 H7         -3.7150   -0.0050   -5.2930 ho        1 O11      0.412000
     37 H8         -2.7220   -3.9270   -5.4630 ha        1 O11      0.126000
     38 H9         -1.5510   -2.4020   -9.4500 ho        1 O11      0.418000
     39 H10        -1.6260   -0.7910   -6.6860 ho        1 O11      0.446000
     40 H11        -3.6840   -0.9870   -3.1270 ha        1 O11      0.140000
     41 H12        -2.1240   -1.5220   -1.2760 ha        1 O11      0.135500
     42 H13         0.7730    1.2780   -2.9000 ha        1 O11      0.135500
     43 H14         1.1010    0.4700   -0.6940 ha        1 O11      0.134000
     44 H15         4.6980    3.0640   -1.4500 ha        1 O11      0.112000
     45 H16         5.9620    1.9340   -2.1930 ha        1 O11      0.112000
     46 H17         2.9040    1.4030   -1.9030 ha        1 O11      0.111000
     47 H18         5.2880   -0.3120   -2.9180 hc        1 O11      0.048200
     48 H19         2.4010   -1.0320   -2.0400 hc        1 O11      0.035367
     49 H20         3.6450   -2.1860   -2.6810 hc        1 O11      0.035367
     50 H21         3.9130   -1.3500   -1.0950 hc        1 O11      0.035367
     51 H22         3.7980   -0.0350   -3.9010 hc        1 O11      0.048200
     52 H23        -0.7700   -1.8290    0.1850 hc        1 O11      0.082700
     53 H24         1.8890   -1.8650    0.1070 ha        1 O11      0.133000
     54 H25         0.8630   -1.5250    3.0400 ha        1 O11      0.120500
     55 H26         2.4650   -2.2730    2.4880 ha        1 O11      0.120500
     56 H27        -0.8250   -0.3790    4.2740 ha        1 O11      0.125000
     57 H28         0.1930   -1.4950    5.3500 ha        1 O11      0.125000
     58 H29        -1.2660    1.6860    5.1320 ho        1 O11      0.415000
     59 H30        -1.2400   -0.1900    8.5850 hc        1 O11      0.040811
     60 H31        -0.9670    1.6000    8.4530 hc        1 O11      0.040811
     61 H32         0.0630    0.6020    9.5700 hc        1 O11      0.040811
     62 H33         1.7260   -1.0020    8.6290 hc        1 O11      0.040811
     63 H34         0.4340   -1.7900    7.6310 hc        1 O11      0.040811
     64 H35         1.9430   -1.1650    6.8360 hc        1 O11      0.040811
     65 H36         2.1240    1.4560    8.4870 hc        1 O11      0.040811
     66 H37         2.3600    1.3020    6.6940 hc        1 O11      0.040811
     67 H38         1.1350    2.4710    7.3490 hc        1 O11      0.040811
     68 O03        -2.8070    0.3200   -5.2880 oh        1 O11     -0.609800
     69 O01        -1.9840   -3.2550   -9.3160 oh        1 O11     -0.594800
@<TRIPOS>BOND
     1    1    2 1   
     2    1   18 2   
     3    1   30 1   
     4    2   13 1   
     5    2   19 1   
     6    2   52 1   
     7    3    8 1   
     8    3   31 1   
     9    3   32 1   
    10    3   69 1   
    11    4    5 2   
    12    4    9 1   
    13    4   42 1   
    14    5    6 1   
    15    5   34 1   
    16    6   11 1   
    17    6   33 1   
    18    6   68 1   
    19    7    8 2   
    20    7   35 1   
    21    7   37 1   
    22    8   10 1   
    23    9   12 1   
    24    9   13 2   
    25   10   39 1   
    26   11   12 2   
    27   11   40 1   
    28   12   41 1   
    29   13   43 1   
    30   14   15 2   
    31   14   44 1   
    32   14   45 1   
    33   15   17 1   
    34   15   46 1   
    35   16   17 1   
    36   16   48 1   
    37   16   49 1   
    38   16   50 1   
    39   17   47 1   
    40   17   51 1   
    41   18   21 2   
    42   19   20 2   
    43   19   53 1   
    44   20   54 1   
    45   20   55 1   
    46   21   22 2   
    47   23   24 2   
    48   23   56 1   
    49   23   57 1   
    50   24   25 1   
    51   24   26 1   
    52   25   58 1   
    53   26   27 1   
    54   26   28 1   
    55   26   29 1   
    56   27   59 1   
    57   27   60 1   
    58   27   61 1   
    59   28   62 1   
    60   28   63 1   
    61   28   64 1   
    62   29   65 1   
    63   29   66 1   
    64   29   67 1   
    65   36   68 1   
    66   38   69 1   
@<TRIPOS>SUBSTRUCTURE
     1 O11         1 TEMP              0 ****  ****    0 ROOT
