@<TRIPOS>MOLECULE
O13
   40    41     1     0     0
SMALL
bcc


@<TRIPOS>ATOM
      1 O            0.0000     0.0000     0.0000 os         1 O13      -0.111300
      2 N1           8.7370     0.1590     0.9530 nz         1 O13       0.122400
      3 C2           6.4080     0.1100     0.1150 ca         1 O13      -0.188900
      4 N2           1.4160     0.0000     0.0000 n2         1 O13      -0.341200
      5 C3           5.5300     0.0970    -0.9700 ca         1 O13      -0.078500
      6 N3          -1.5290    -2.2270    -0.9240 n3         1 O13      -0.535600
      7 C4           4.1700     0.0630    -0.7540 ca         1 O13      -0.034500
      8 N4           8.3350     0.1740    -1.3350 n2         1 O13      -0.458100
      9 C5           3.6700     0.0430     0.5510 ca         1 O13      -0.298900
     10 C6           2.0620     0.0000     1.1200 ce         1 O13       0.326800
     11 C7          -0.5810    -0.0010    -1.3060 c3         1 O13       0.152100
     12 C8          -1.9850     0.6070    -1.2400 c3         1 O13      -0.044400
     13 C9          -2.8670    -0.2600    -0.3370 c3         1 O13       0.020600
     14 C10         -2.8960    -1.6900    -0.8810 c3         1 O13       0.145800
     15 C12         -0.6770    -1.4380    -1.8220 c3         1 O13       0.129800
     16 C13          4.5510     0.0560     1.6350 ca         1 O13      -0.034500
     17 C14          5.9100     0.0830     1.4180 ca         1 O13      -0.078500
     18 HN1          9.6800     0.1870     0.6180 hn         1 O13       0.227133
     19 HN1A         8.5610     0.9640     1.5200 hn         1 O13       0.227133
     20 H3           5.9170     0.1130    -1.9820 ha         1 O13       0.106000
     21 H4           3.4880     0.0530    -1.5960 ha         1 O13       0.137000
     22 HN4          9.3230     0.2050    -1.4930 hn         1 O13       0.336400
     23 H6           2.6740     0.8740     0.9350 h4         1 O13       0.171800
     24 H7           0.0330     0.5840    -1.9800 h1         1 O13       0.016700
     25 H8          -1.8710     1.4740    -0.6020 hc         1 O13       0.029200
     26 H8A         -1.9220     1.0690    -2.2180 hc         1 O13       0.029200
     27 H9          -3.8730     0.1410    -0.3240 hc         1 O13       0.029700
     28 H9A         -2.4600    -0.2640     0.6670 hc         1 O13       0.029700
     29 H10         -3.3120    -1.6850    -1.8820 h1         1 O13       0.014700
     30 H10A        -3.5050    -2.3090    -0.2340 h1         1 O13       0.014700
     31 H11         -2.1370    -4.2080    -0.6080 h1         1 O13       0.002700
     32 H11A        -1.9440    -3.7470    -2.3060 h1         1 O13       0.002700
     33 H11B        -0.5180    -4.0240    -1.2970 h1         1 O13       0.002700
     34 H12          0.3140    -1.8760    -1.8530 h1         1 O13       0.017700
     35 H12A        -1.1070    -1.4360    -2.8160 h1         1 O13       0.017700
     36 H13          4.1640     0.0370     2.6470 ha         1 O13       0.137000
     37 H14          6.5930     0.0940     2.2590 ha         1 O13       0.106000
     38 H131         8.6020    -0.6690     1.5000 hn         1 O13       0.227133
     39 C11         -1.5320    -3.6440    -1.3090 c3         1 O13       0.188100
     40 C1           7.8700     0.1450    -0.1180 ce         1 O13       0.232800
@<TRIPOS>BOND
     1     1     4 1   
     2     1    11 1   
     3     2    18 1   
     4     2    19 1   
     5     2    38 1   
     6     2    40 1   
     7     3     5 ar  
     8     3    17 ar  
     9     3    40 1   
    10     4    10 2   
    11     5     7 ar  
    12     5    20 1   
    13     6    14 1   
    14     6    15 1   
    15     6    39 1   
    16     7     9 ar  
    17     7    21 1   
    18     8    22 1   
    19     8    40 2   
    20     9    10 1   
    21     9    16 ar  
    22    10    23 1   
    23    11    12 1   
    24    11    15 1   
    25    11    24 1   
    26    12    13 1   
    27    12    25 1   
    28    12    26 1   
    29    13    14 1   
    30    13    27 1   
    31    13    28 1   
    32    14    29 1   
    33    14    30 1   
    34    15    34 1   
    35    15    35 1   
    36    16    17 ar  
    37    16    36 1   
    38    17    37 1   
    39    31    39 1   
    40    32    39 1   
    41    33    39 1   
@<TRIPOS>SUBSTRUCTURE
     1 O13         1 TEMP              0 ****  ****    0 ROOT
