@<TRIPOS>MOLECULE
molecule
   40    41     1     0     0
SMALL
bcc


@<TRIPOS>ATOM
      1 O            0.0000     0.0000     0.0000 os         1 O13      -0.177300
      2 N1           8.7370     0.1590     0.9530 nz         1 O13      -0.741600
      3 C2           6.4080     0.1100     0.1150 ca         1 O13      -0.247900
      4 N2           1.4160     0.0000     0.0000 n2         1 O13      -0.447200
      5 C3           5.5300     0.0970    -0.9700 ca         1 O13      -0.099000
      6 N3          -1.5290    -2.2270    -0.9240 n3         1 O13      -0.725600
      7 C4           4.1700     0.0630    -0.7540 ca         1 O13      -0.093500
      8 N4           8.3350     0.1740    -1.3350 n2         1 O13      -0.727100
      9 C5           3.6700     0.0430     0.5510 ca         1 O13      -0.039900
     10 C6           2.0620     0.0000     1.1200 ce         1 O13       0.400800
     11 C7          -0.5810    -0.0010    -1.3060 c3         1 O13       0.134100
     12 C8          -1.9850     0.6070    -1.2400 c3         1 O13      -0.096400
     13 C9          -2.8670    -0.2600    -0.3370 c3         1 O13      -0.039400
     14 C10         -2.8960    -1.6900    -0.8810 c3         1 O13       0.157800
     15 C12         -0.6770    -1.4380    -1.8220 c3         1 O13       0.141800
     16 C13          4.5510     0.0560     1.6350 ca         1 O13      -0.093500
     17 C14          5.9100     0.0830     1.4180 ca         1 O13      -0.099000
     18 HN1          9.6800     0.1850     0.6180 hn         1 O13       0.473467
     19 HN1A         8.5620     0.9650     1.5190 hn         1 O13       0.473467
     20 H3           5.9170     0.1130    -1.9820 ha         1 O13       0.125500
     21 H4           3.4880     0.0530    -1.5960 ha         1 O13       0.171000
     22 HN4          7.7060     0.1640    -2.1130 hn         1 O13       0.483400
     23 H6           1.5200     0.0000     2.0580 h4         1 O13       0.072800
     24 H7           0.0330     0.5840    -1.9800 h1         1 O13       0.048700
     25 H8          -1.8710     1.4740    -0.6020 hc         1 O13       0.058700
     26 H8A         -1.9220     1.0690    -2.2180 hc         1 O13       0.058700
     27 H9          -3.8730     0.1410    -0.3240 hc         1 O13       0.060700
     28 H9A         -2.4600    -0.2640     0.6670 hc         1 O13       0.060700
     29 H10         -3.3120    -1.6850    -1.8820 h1         1 O13       0.039700
     30 H10A        -3.5050    -2.3090    -0.2340 h1         1 O13       0.039700
     31 H11         -0.5180    -4.0240    -1.2970 h1         1 O13       0.033700
     32 H11A        -2.1370    -4.2080    -0.6080 h1         1 O13       0.033700
     33 H11B        -1.9440    -3.7470    -2.3050 h1         1 O13       0.033700
     34 H12         -1.1070    -1.4360    -2.8160 h1         1 O13       0.040200
     35 H12A         0.3140    -1.8760    -1.8530 h1         1 O13       0.040200
     36 H13          4.1640     0.0370     2.6470 ha         1 O13       0.171000
     37 H14          6.5930     0.0940     2.2590 ha         1 O13       0.125500
     38 H131         8.6020    -0.6660     1.5030 hn         1 O13       0.473467
     39 C11         -1.5320    -3.6440    -1.3090 c3         1 O13       0.153100
     40 C1           7.8700     0.1450    -0.1180 ce         1 O13       0.522800
@<TRIPOS>BOND
     1    14    13 1
     2    14     6 1
     3    13    12 1
     4    39     6 1
     5     6    15 1
     6    12    11 1
     7    15    11 1
     8    11     1 1
     9     1     4 1
    10     4    10 2
    11    10     9 1
    12     9    16 ar
    13     9     7 ar
    14    16    17 ar
    15     7     5 ar
    16    17     3 ar
    17     5     3 ar
    18     3    40 1
    19    40     2 1
    20    40     8 2
    21     2    18 1
    22     2    19 1
    23     5    20 1
    24     7    21 1
    25     8    22 1
    26    10    23 1
    27    11    24 1
    28    12    25 1
    29    12    26 1
    30    13    27 1
    31    13    28 1
    32    14    29 1
    33    14    30 1
    34    39    31 1
    35    39    32 1
    36    39    33 1
    37    15    34 1
    38    15    35 1
    39    16    36 1
    40    17    37 1
    41    38     2 1
@<TRIPOS>SUBSTRUCTURE
     1 O13         1 TEMP              0 ****  ****    0 ROOT
