@<TRIPOS>MOLECULE
molecule
   40    41     1     0     0
SMALL
bcc


@<TRIPOS>ATOM
      1 O            0.0000     0.0000     0.0000 os         1 O14      -0.174300
      2 N1           8.4820     0.0000    -0.0710 nz         1 O14      -0.741600
      3 C2           6.3120     0.0000     1.1210 ca         1 O14      -0.239900
      4 N2           1.4160     0.0000     0.0000 n2         1 O14      -0.415200
      5 C3           5.6140     0.0010     2.3300 ca         1 O14      -0.101000
      6 N3          -2.6980    -0.8460    -3.0780 n3         1 O14      -0.721600
      7 C4           4.2370    -0.0000     2.3310 ca         1 O14      -0.086000
      8 N4           8.4430     0.0000     2.2510 n2         1 O14      -0.724100
      9 C5           3.5380    -0.0010     1.1210 ca         1 O14      -0.054900
     10 C6           2.0620     0.0000     1.1200 ce         1 O14       0.394800
     11 C7          -0.5810    -0.0010    -1.3060 c3         1 O14       0.202100
     12 C8          -1.9830     0.6090    -1.2420 c3         1 O14      -0.132400
     13 C9          -2.6230     0.5500    -2.6310 c3         1 O14       0.180800
     14 C11         -1.3590    -1.4380    -3.1920 c3         1 O14       0.180800
     15 C12         -0.6810    -1.4390    -1.8210 c3         1 O14      -0.132400
     16 C13          4.2380    -0.0010    -0.0890 ca         1 O14      -0.086000
     17 C14          5.6150     0.0050    -0.0880 ca         1 O14      -0.101000
     18 HN1          9.4660    -0.0020     0.1130 hn         1 O14       0.473800
     19 HN1A         8.2420     0.8180    -0.5950 hn         1 O14       0.473800
     20 H3           6.1550     0.0010     3.2680 ha         1 O14       0.126500
     21 H4           3.6960     0.0000     3.2700 ha         1 O14       0.173000
     22 HN4          7.9440     0.0000     3.1180 hn         1 O14       0.483400
     23 H6           1.5210     0.0000     2.0580 h4         1 O14       0.023800
     24 H7           0.0350     0.5810    -1.9820 h1         1 O14       0.028700
     25 H8          -2.3150     1.2960    -0.4730 hc         1 O14       0.068200
     26 H8A         -1.2080     1.1650    -1.7550 hc         1 O14       0.068200
     27 H9          -2.0220     1.1200    -3.3290 h1         1 O14       0.036200
     28 H9A         -3.6230     0.9660    -2.5840 h1         1 O14       0.036200
     29 H10         -4.4140    -0.5130    -4.2340 h1         1 O14       0.036033
     30 H10A        -2.8880    -0.4310    -5.1240 h1         1 O14       0.036033
     31 H10B        -3.5330    -1.9980    -4.6170 h1         1 O14       0.036033
     32 H11         -1.4460    -2.4570    -3.5510 h1         1 O14       0.036200
     33 H11A        -0.7660    -0.8560    -3.8870 h1         1 O14       0.036200
     34 H12         -1.2690    -2.0290    -1.1280 hc         1 O14       0.068200
     35 H12A         0.3130    -1.8600    -1.9110 hc         1 O14       0.068200
     36 H13          3.6970     0.0010    -1.0270 ha         1 O14       0.173000
     37 H14          6.1570     0.0050    -1.0250 ha         1 O14       0.126500
     38 H131         8.2390    -0.8160    -0.5970 hn         1 O14       0.473800
     39 C10         -3.4310    -0.9540    -4.3460 c3         1 O14       0.150100
     40 C1           7.7920     0.0000     1.1220 ce         1 O14       0.520800
@<TRIPOS>BOND
     1    39     6 1
     2    14     6 1
     3    14    15 1
     4     6    13 1
     5    15    11 1
     6    13    12 1
     7    11     1 1
     8    11    12 1
     9     1     4 1
    10     4    10 2
    11    10     9 1
    12     9     7 ar
    13     9    16 ar
    14     7     5 ar
    15    16    17 ar
    16     5     3 ar
    17    17     3 ar
    18     3    40 1
    19    40     8 2
    20    40     2 1
    21     2    18 1
    22     2    19 1
    23     5    20 1
    24     7    21 1
    25     8    22 1
    26    10    23 1
    27    11    24 1
    28    12    25 1
    29    12    26 1
    30    13    27 1
    31    13    28 1
    32    39    29 1
    33    39    30 1
    34    39    31 1
    35    14    32 1
    36    14    33 1
    37    15    34 1
    38    15    35 1
    39    16    36 1
    40    17    37 1
    41    38     2 1
@<TRIPOS>SUBSTRUCTURE
     1 O14         1 TEMP              0 ****  ****    0 ROOT
