@<TRIPOS>MOLECULE
O14
   40    42     1     0     0
SMALL
bcc


@<TRIPOS>ATOM
      1 O            0.0000     0.0000     0.0000 os         1 O14      -0.142000
      2 N1           8.4820     0.0000    -0.0710 nz         1 O14       0.889000
      3 C2           6.3120     0.0000     1.1210 c2         1 O14      -0.110000
      4 N2           1.4160     0.0000     0.0000 n2         1 O14       0.116000
      5 C3           5.6140     0.0010     2.3300 c2         1 O14      -0.067500
      6 N3          -2.6980    -0.8460    -3.0780 n3         1 O14      -0.061000
      7 C4           4.2370    -0.0000     2.3310 c2         1 O14      -0.057000
      8 N4           8.4430     0.0000     2.2510 n2         1 O14       0.078000
      9 C5           3.5380    -0.0010     1.1210 c3         1 O14      -0.085000
     10 C6           2.0620     0.0000     1.1200 c2         1 O14      -0.334000
     11 C7          -0.5810    -0.0010    -1.3060 c3         1 O14       0.130000
     12 C8          -1.9830     0.6090    -1.2420 c3         1 O14      -0.174000
     13 C9          -2.6230     0.5500    -2.6310 c3         1 O14      -0.055000
     14 C11         -1.3590    -1.4380    -3.1920 c3         1 O14      -0.055000
     15 C12         -0.6810    -1.4390    -1.8210 c3         1 O14      -0.174000
     16 C13          4.2380    -0.0010    -0.0890 c2         1 O14      -0.057000
     17 C14          5.6150     0.0050    -0.0880 c2         1 O14      -0.067500
     18 HN1          9.4660    -0.0020     0.1130 hn         1 O14       0.022333
     19 HN1A         8.2390    -0.8160    -0.5970 hn         1 O14       0.022333
     20 H3           6.1550     0.0010     3.2680 ha         1 O14       0.107500
     21 H4           3.6960     0.0000     3.2700 ha         1 O14       0.141500
     22 HN4          9.4440     0.0000     2.2520 hn         1 O14       0.093000
     23 H6           2.6750     0.8750     0.9350 DU         1 O14       0.278000
     24 H7           0.0350     0.5810    -1.9820 h1         1 O14       0.036000
     25 H8          -2.3150     1.2960    -0.4730 hc         1 O14       0.079250
     26 H8A         -1.2080     1.1650    -1.7550 hc         1 O14       0.079250
     27 H9          -3.6230     0.9660    -2.5840 h1         1 O14       0.047250
     28 H9A         -2.0220     1.1200    -3.3290 h1         1 O14       0.047250
     29 H10         -3.5330    -1.9980    -4.6170 h1         1 O14       0.043000
     30 H10A        -4.4140    -0.5130    -4.2330 h1         1 O14       0.043000
     31 H10B        -2.8880    -0.4310    -5.1240 h1         1 O14       0.043000
     32 H11         -1.4460    -2.4570    -3.5510 h1         1 O14       0.047250
     33 H11A        -0.7660    -0.8560    -3.8870 h1         1 O14       0.047250
     34 H12         -1.2690    -2.0290    -1.1280 hc         1 O14       0.079250
     35 H12A         0.3130    -1.8600    -1.9110 hc         1 O14       0.079250
     36 H13          3.6970     0.0010    -1.0270 ha         1 O14       0.141500
     37 H14          6.1570     0.0050    -1.0250 ha         1 O14       0.107500
     38 H131         8.2420     0.8200    -0.5940 hn         1 O14       0.022333
     39 C10         -3.4310    -0.9540    -4.3460 c3         1 O14      -0.090000
     40 C1           7.7920     0.0000     1.1220 c2         1 O14      -0.293000
@<TRIPOS>BOND
     1     1     4 1   
     2     1    11 1   
     3     2    18 1   
     4     2    19 1   
     5     2    38 1   
     6     2    40 1   
     7     3     5 1   
     8     3    17 1   
     9     3    40 1   
    10     4    10 1   
    11     5     7 1   
    12     5    20 1   
    13     6    13 1   
    14     6    14 1   
    15     6    39 1   
    16     7     9 1   
    17     7    21 1   
    18     8    22 1   
    19     8    40 1   
    20     9    10 1   
    21     9    16 1   
    22     9    23 1   
    23    10    23 1   
    24    11    12 1   
    25    11    15 1   
    26    11    24 1   
    27    12    13 1   
    28    12    25 1   
    29    12    26 1   
    30    13    27 1   
    31    13    28 1   
    32    14    15 1   
    33    14    32 1   
    34    14    33 1   
    35    15    34 1   
    36    15    35 1   
    37    16    17 1   
    38    16    36 1   
    39    17    37 1   
    40    29    39 1   
    41    30    39 1   
    42    31    39 1   
@<TRIPOS>SUBSTRUCTURE
     1 O14         1 TEMP              0 ****  ****    0 ROOT
