@<TRIPOS>MOLECULE
O15
   33    34     1     0     0
SMALL
bcc


@<TRIPOS>ATOM
      1 C1           0.0000     0.0000     0.0000 c2         1 O15      -0.270000
      2 N1           1.3770     0.0000     0.0000 nz         1 O15       0.886000
      3 O1          -2.9310    -0.0060     7.3060 os         1 O15      -0.063000
      4 C2          -0.7420     0.0000     1.2810 c2         1 O15      -0.159000
      5 N2          -2.2220    -0.0050     6.0800 n2         1 O15       0.145000
      6 O2          -2.3700    -0.0090    10.9160 o          1 O15      -0.587500
      7 C3          -2.1370     0.0000     1.2800 c2         1 O15      -0.057000
      8 N3          -0.6510     0.0070    -1.1280 n2         1 O15       0.032000
      9 O3          -4.1510    -0.0090     9.6080 o          1 O15      -0.587500
     10 C4          -2.8270    -0.0010     2.4710 c2         1 O15      -0.094500
     11 C5          -2.1290    -0.0020     3.6820 c3         1 O15      -0.028000
     12 C6          -2.8680    -0.0040     4.9600 c2         1 O15      -0.347000
     13 C7          -2.0910    -0.0070     8.4630 c3         1 O15       0.005000
     14 C8          -2.9460    -0.0080     9.7030 c2         1 O15       0.402000
     15 C9          -1.2090     1.2420     8.4530 c3         1 O15      -0.132000
     16 C10         -1.2090    -1.2560     8.4510 c3         1 O15      -0.132000
     17 C11         -0.7330    -0.0020     3.6830 c2         1 O15      -0.094500
     18 C12         -0.0440    -0.0070     2.4900 c2         1 O15      -0.057000
     19 HN1          1.7110    -0.8240     0.4590 hn         1 O15       0.019000
     20 HN1A         1.7110     0.8100     0.4840 hn         1 O15       0.019000
     21 H3          -2.6780     0.0010     0.3410 ha         1 O15       0.097500
     22 HN3         -0.1510     0.0090    -1.9960 hn         1 O15       0.083000
     23 H4          -3.9100    -0.0010     2.4700 ha         1 O15       0.143500
     24 H6          -2.4020    -0.8780     4.5220 DU         1 O15       0.229000
     25 H9          -0.4490     1.1420     7.6870 hc         1 O15       0.048167
     26 H9A         -0.7330     1.3550     9.4200 hc         1 O15       0.048167
     27 H9B         -1.8180     2.1130     8.2460 hc         1 O15       0.048167
     28 H10         -1.8230    -2.1310     8.2770 hc         1 O15       0.048167
     29 H10A        -0.7060    -1.3520     9.4060 hc         1 O15       0.048167
     30 H10B        -0.4710    -1.1700     7.6620 hc         1 O15       0.048167
     31 H11         -0.1910    -0.0050     4.6210 ha         1 O15       0.143500
     32 H12          1.0400    -0.0070     2.4910 ha         1 O15       0.097500
     33 H13          1.7110     0.0150    -0.9430 hn         1 O15       0.019000
@<TRIPOS>BOND
     1     1     2 1   
     2     1     4 1   
     3     1     8 1   
     4     2    19 1   
     5     2    20 1   
     6     2    33 1   
     7     3     5 1   
     8     3    13 1   
     9     4     7 1   
    10     4    18 1   
    11     5    12 1   
    12     6    14 1   
    13     7    10 1   
    14     7    21 1   
    15     8    22 1   
    16     9    14 1   
    17    10    11 1   
    18    10    23 1   
    19    11    12 1   
    20    11    17 1   
    21    11    24 1   
    22    12    24 1   
    23    13    14 1   
    24    13    15 1   
    25    13    16 1   
    26    15    25 1   
    27    15    26 1   
    28    15    27 1   
    29    16    28 1   
    30    16    29 1   
    31    16    30 1   
    32    17    18 1   
    33    17    31 1   
    34    18    32 1   
@<TRIPOS>SUBSTRUCTURE
     1 O15         1 TEMP              0 ****  ****    0 ROOT
