@<TRIPOS>MOLECULE
molecule
   33    33     1     0     0
SMALL
bcc


@<TRIPOS>ATOM
      1 C1           0.0000     0.0000     0.0000 ce         1 O15       0.531800
      2 N1           1.3770     0.0000     0.0000 nz         1 O15      -0.740600
      3 O1          -2.9310    -0.0060     7.3060 os         1 O15      -0.116300
      4 C2          -0.7420     0.0000     1.2810 ca         1 O15      -0.271900
      5 N2          -2.2220    -0.0050     6.0800 n2         1 O15      -0.392200
      6 O2          -2.3700    -0.0090    10.9160 o          1 O15      -0.807300
      7 C3          -2.1370     0.0000     1.2800 ca         1 O15      -0.099000
      8 N3          -0.6510     0.0070    -1.1280 n2         1 O15      -0.757100
      9 O3          -4.1510    -0.0090     9.6080 o          1 O15      -0.807300
     10 C4          -2.8270    -0.0010     2.4710 ca         1 O15      -0.104000
     11 C5          -2.1290    -0.0020     3.6820 ca         1 O15      -0.010900
     12 C6          -2.8680    -0.0040     4.9600 ce         1 O15       0.326800
     13 C7          -2.0910    -0.0070     8.4630 c3         1 O15       0.034800
     14 C8          -2.9460    -0.0080     9.7030 c          1 O15       0.906600
     15 C9          -1.2090     1.2420     8.4530 c3         1 O15      -0.094600
     16 C10         -1.2090    -1.2560     8.4510 c3         1 O15      -0.094600
     17 C11         -0.7330    -0.0020     3.6830 ca         1 O15      -0.104000
     18 C12         -0.0440    -0.0070     2.4900 ca         1 O15      -0.099000
     19 HN1          1.7110    -0.0140    -0.9430 hn         1 O15       0.469800
     20 HN1A         1.7110     0.8240     0.4590 hn         1 O15       0.469800
     21 H3          -2.6780     0.0010     0.3410 ha         1 O15       0.115500
     22 HN3         -1.6520     0.0090    -1.1300 hn         1 O15       0.480400
     23 H4          -3.9100    -0.0010     2.4700 ha         1 O15       0.175000
     24 H6          -3.9510    -0.0040     4.9590 h4         1 O15       0.018800
     25 H9          -1.8250     2.1190     8.2960 hc         1 O15       0.035033
     26 H9A         -0.6950     1.3280     9.4030 hc         1 O15       0.035033
     27 H9B         -0.4810     1.1640     7.6550 hc         1 O15       0.035033
     28 H10         -0.7260    -1.3670     9.4150 hc         1 O15       0.035033
     29 H10A        -1.8200    -2.1280     8.2510 hc         1 O15       0.035033
     30 H10B        -0.4550    -1.1590     7.6790 hc         1 O15       0.035033
     31 H11         -0.1910    -0.0050     4.6210 ha         1 O15       0.175000
     32 H12          1.0400    -0.0070     2.4910 ha         1 O15       0.115500
     33 H13          1.7110    -0.8100     0.4840 hn         1 O15       0.469800
@<TRIPOS>BOND
     1    16    13 1
     2     6    14 1
     3     3    13 1
     4     3     5 1
     5    13    14 1
     6    13    15 1
     7    12     5 2
     8    12    11 1
     9    14     9 1
    10    17    11 ar
    11    17    18 ar
    12    11    10 ar
    13    18     4 ar
    14    10     7 ar
    15     4     7 ar
    16     4     1 1
    17     8     1 2
    18     1     2 1
    19     2    19 1
    20     2    20 1
    21     7    21 1
    22     8    22 1
    23    10    23 1
    24    12    24 1
    25    15    25 1
    26    15    26 1
    27    15    27 1
    28    16    28 1
    29    16    29 1
    30    16    30 1
    31    17    31 1
    32    18    32 1
    33    33     2 1
@<TRIPOS>SUBSTRUCTURE
     1 O15         1 TEMP              0 ****  ****    0 ROOT
