@<TRIPOS>MOLECULE
O16
   50    55     1     0     0
SMALL
bcc


@<TRIPOS>ATOM
      1 O1         -0.0190   -0.7950    0.2100 o         1 O16     -0.562500
      2 C1          1.1240   -0.3260    0.1130 c         1 O16      0.670100
      3 N1          1.8040    0.1170    1.2760 n         1 O16     -0.390500
      4 N2          2.8470    1.0010    1.1570 n         1 O16     -0.387500
      5 C2          3.6980    0.9340    0.0250 c         1 O16      0.677100
      6 O2          4.8190    1.4640    0.0640 o         1 O16     -0.574500
      7 C3          3.1380    0.3230   -1.2100 ca        1 O16     -0.107600
      8 C4          3.8710    0.3680   -2.3980 ca        1 O16     -0.040000
      9 C5          3.3140   -0.2290   -3.5420 ca        1 O16     -0.046200
     10 N3          4.0870   -0.2220   -4.7780 na        1 O16      0.268000
     11 N4          5.1180   -0.9960   -5.0150 nc        1 O16     -0.401800
     12 C6          5.6150   -0.6010   -6.2740 cc        1 O16      0.635800
     13 C7          6.7510   -1.2060   -6.9220 ce        1 O16     -0.310800
     14 C8          7.1940   -0.8230   -8.1400 cf        1 O16      0.051800
     15 C9          8.3290   -1.4010   -8.8260 ca        1 O16     -0.125800
     16 C10         8.6310   -0.9430  -10.1230 ca        1 O16     -0.083000
     17 C11         9.7110   -1.4690  -10.8230 ca        1 O16     -0.134500
     18 C12        10.5080   -2.4570  -10.2420 ca        1 O16     -0.078000
     19 C13        10.2200   -2.9170   -8.9560 ca        1 O16     -0.134500
     20 C14         9.1380   -2.3940   -8.2510 ca        1 O16     -0.083000
     21 N5          4.8270    0.4500   -6.7590 nd        1 O16     -0.437800
     22 N6          3.9230    0.6740   -5.8180 na        1 O16      0.186000
     23 C15         2.8630    1.6330   -5.9430 cc        1 O16      0.310700
     24 N7          1.6690    1.4770   -5.3460 nd        1 O16     -0.494100
     25 C16         0.8750    2.5700   -5.6670 ca        1 O16      0.080400
     26 C17        -0.4570    2.7780   -5.2310 ca        1 O16     -0.057000
     27 C18        -1.1180    3.9190   -5.6410 ca        1 O16     -0.111000
     28 C19        -0.4940    4.8670   -6.4780 ca        1 O16     -0.073000
     29 C20         0.8060    4.6870   -6.9170 ca        1 O16     -0.094000
     30 C21         1.5090    3.5420   -6.5220 ca        1 O16     -0.107100
     31 S1          3.0710    3.0620   -6.8970 ss        1 O16      0.200900
     32 C22         2.0600   -0.8640   -3.5160 ca        1 O16     -0.043000
     33 C23         1.3510   -0.8980   -2.3150 ca        1 O16     -0.078000
     34 C24         1.8850   -0.3070   -1.1670 ca        1 O16     -0.059600
     35 HN1         1.1800    0.4070    2.0200 hn        1 O16      0.335500
     36 HN2         3.3530    1.0670    2.0340 hn        1 O16      0.335500
     37 H4          4.8600    0.8620   -2.3990 ha        1 O16      0.192000
     38 H7          7.2360   -2.0150   -6.3470 ha        1 O16      0.178000
     39 H8          6.6810   -0.0130   -8.6950 ha        1 O16      0.141000
     40 H10         8.0070   -0.1630  -10.5880 ha        1 O16      0.137000
     41 H11         9.9390   -1.1050  -11.8370 ha        1 O16      0.150500
     42 H12        11.3640   -2.8730  -10.7970 ha        1 O16      0.152000
     43 H13        10.8480   -3.6950   -8.4960 ha        1 O16      0.150500
     44 H14         8.9270   -2.7680   -7.2380 ha        1 O16      0.137000
     45 H17        -0.9450    2.0360   -4.5800 ha        1 O16      0.165000
     46 H18        -2.1560    4.0980   -5.3130 ha        1 O16      0.163000
     47 H19        -1.0560    5.7660   -6.7830 ha        1 O16      0.163000
     48 H20         1.2860    5.4330   -7.5710 ha        1 O16      0.160000
     49 H22         1.6270   -1.3270   -4.4190 ha        1 O16      0.177000
     50 H23         0.3640   -1.3950   -2.2620 ha        1 O16      0.194000
@<TRIPOS>BOND
     1    1    2 2
     2    2    3 1
     3    2   34 1
     4    3    4 1
     5    3   35 1
     6    4    5 1
     7    4   36 1
     8    5    6 2
     9    5    7 1
    10    7    8 ar
    11    7   34 ar
    12    8    9 ar
    13    8   37 1
    14    9   10 1
    15    9   32 ar
    16   10   11 2
    17   10   22 1
    18   11   12 1
    19   12   13 1
    20   12   21 2
    21   13   14 2
    22   13   38 1
    23   14   15 1
    24   14   39 1
    25   15   16 ar
    26   15   20 ar
    27   16   17 ar
    28   16   40 1
    29   17   18 ar
    30   17   41 1
    31   18   19 ar
    32   18   42 1
    33   19   20 ar
    34   19   43 1
    35   20   44 1
    36   21   22 1
    37   22   23 1
    38   23   24 2
    39   23   31 1
    40   24   25 1
    41   25   26 ar
    42   25   30 ar
    43   26   27 ar
    44   26   45 1
    45   27   28 ar
    46   27   46 1
    47   28   29 ar
    48   28   47 1
    49   29   30 ar
    50   29   48 1
    51   30   31 1
    52   32   33 ar
    53   32   49 1
    54   33   34 ar
    55   33   50 1
@<TRIPOS>SUBSTRUCTURE
     1 O16         1 TEMP              0 ****  ****    0 ROOT
