@<TRIPOS>MOLECULE
O17
   75    80     1     0     0
SMALL
bcc


@<TRIPOS>ATOM
      1 N6          -0.4790     0.0010    -2.2390 n1         1 O17       0.015000
      2 C29         -0.4910     0.0010    -1.3880 c1         1 O17      -0.145000
      3 C28          0.0000     0.0000     0.0000 c3         1 O17       0.154000
      4 O2           1.4290     0.0000     0.0000 os         1 O17      -0.173000
      5 C27          2.0450     0.0000     1.2090 ca         1 O17       0.147000
      6 C6           3.4500    -0.0000     1.2870 ca         1 O17      -0.079000
      7 C5           4.2550    -0.0010     0.0620 c2         1 O17      -0.137000
      8 C4           5.6050    -0.0000     0.1400 c2         1 O17      -0.157000
      9 C3           6.3840     0.0000    -1.0450 c2         1 O17       0.640000
     10 O1           5.8370     0.0010    -2.1330 o          1 O17      -0.424000
     11 N            7.7290    -0.0000    -0.9670 ns         1 O17      -0.326000
     12 C2           8.5330     0.0000    -2.1910 DU         1 O17       0.050000
     13 C1          10.0190     0.0000    -1.8250 c3         1 O17      -0.823000
     14 O           10.3450    -1.2210    -1.1590 os         1 O17       0.145000
     15 C           11.7170    -1.3240    -0.7720 c3         1 O17      -0.026000
     16 C26          1.2960     0.0050     2.3710 ca         1 O17      -0.273000
     17 C9           1.9330     0.0040     3.6070 ca         1 O17      -0.009000
     18 C8           3.3240    -0.0000     3.6800 ca         1 O17      -0.180000
     19 C7           4.0750    -0.0000     2.5400 ca         1 O17      -0.008000
     20 N1           1.1770     0.0100     4.7770 nu         1 O17       0.142000
     21 C10          0.0600    -0.8050     4.8840 c2         1 O17       0.022000
     22 N5          -0.7450    -0.6730     5.9310 n2         1 O17      -0.155000
     23 C15         -1.8240    -1.4240     6.0830 c2         1 O17       0.069000
     24 C13         -2.1550    -2.3980     5.1260 c2         1 O17      -0.168000
     25 C14         -3.3220    -3.2110     5.2880 c1         1 O17      -0.072000
     26 N3          -4.2370    -3.8720     5.4210 n1         1 O17      -0.079000
     27 C12         -1.3170    -2.5610     4.0030 c2         1 O17       0.092000
     28 N2          -1.6040    -3.5090     3.0330 nv         1 O17      -0.043000
     29 C11         -0.2000    -1.7410     3.8910 c2         1 O17      -0.368000
     30 N4          -2.6330    -1.2480     7.1920 nu         1 O17       0.077000
     31 C16         -2.2920    -0.2340     8.1930 c3         1 O17      -0.024000
     32 C25         -0.9150    -0.5430     8.7840 c3         1 O17      -0.134333
     33 C20         -0.5590     0.5160     9.8290 c3         1 O17      -0.059000
     34 C19         -1.6070     0.5050    10.9450 c3         1 O17      -0.108000
     35 C21         -0.5340     1.8970     9.1690 c3         1 O17      -0.108000
     36 C22         -1.9100     2.2050     8.5780 c3         1 O17      -0.059000
     37 C24         -2.2660     1.1460     7.5330 c3         1 O17      -0.134333
     38 C23         -2.9580     2.1930     9.6930 c3         1 O17      -0.108000
     39 C18         -2.9840     0.8130    10.3530 c3         1 O17      -0.059000
     40 C17         -3.3400    -0.2460     9.3080 c3         1 O17      -0.134333
     41 H1          -0.4190    -0.8470     0.5300 h1         1 O17       0.054000
     42 H2          -0.3020     0.9180     0.4900 h1         1 O17       0.054000
     43 H3           3.9830    -0.7010    -0.7180 ha         1 O17       0.132000
     44 H5           6.1860    -0.0010    -0.7740 ha         1 O17      -0.158000
     45 H7           8.2560     0.7250    -1.4110 DU         1 O17       0.246000
     46 H8           8.5070     0.9840    -2.6440 ha         1 O17       0.067000
     47 H9           8.1390    -0.7310    -2.8860 ha         1 O17       0.067000
     48 H10         10.1940    -0.7120    -1.0280 h1         1 O17       0.230500
     49 H11         10.3090     0.9900    -1.4940 h1         1 O17       0.230500
     50 H12         11.8980    -2.3010    -0.3400 h1         1 O17       0.072333
     51 H13         11.9440    -0.5580    -0.0390 h1         1 O17       0.072333
     52 H14         12.3490    -1.1900    -1.6410 h1         1 O17       0.072333
     53 H15          0.2340    -0.2000     2.3230 ha         1 O17       0.147000
     54 H16          3.8150     0.0030     4.6460 ha         1 O17       0.116000
     55 H17          5.1570     0.0030     2.5990 ha         1 O17       0.130000
     56 H18          1.5010    -0.4850     5.5840 hn         1 O17       0.082000
     57 H19         -2.3730    -3.3690     2.4080 hn         1 O17       0.080000
     58 H20         -1.0130    -4.3100     2.9270 hn         1 O17       0.080000
     59 H21          0.0780    -1.5330     2.8650 ha         1 O17       0.163000
     60 H22         -3.2460    -1.9820     7.4870 hn         1 O17       0.095000
     61 H23         -0.1460    -0.1300     8.1430 hc         1 O17       0.074000
     62 H24         -0.7860    -1.6160     8.8570 hc         1 O17       0.074000
     63 H25          0.4160     0.2980    10.2480 hc         1 O17       0.063333
     64 H26         -1.7780    -0.5130    11.2730 hc         1 O17       0.059167
     65 H27         -1.2580     1.1030    11.7780 hc         1 O17       0.059167
     66 H28         -0.3650     2.6630     9.9160 hc         1 O17       0.059167
     67 H29          0.2440     1.9340     8.4160 hc         1 O17       0.059167
     68 H30         -1.8920     3.1820     8.1100 hc         1 O17       0.063333
     69 H31         -3.1580     1.2640     6.9300 hc         1 O17       0.074000
     70 H32         -1.3960     1.2120     6.8910 hc         1 O17       0.074000
     71 H33         -3.8520     2.6920     9.3380 hc         1 O17       0.059167
     72 H34         -2.5690     2.7360    10.5450 hc         1 O17       0.059167
     73 H35         -3.7260     0.8040    11.1430 hc         1 O17       0.063333
     74 H36         -4.2640     0.1680     8.9230 hc         1 O17       0.074000
     75 H37         -3.5160    -1.2720     9.6100 hc         1 O17       0.074000
@<TRIPOS>BOND
     1     1     2 1   
     2     2     3 1   
     3     3     4 1   
     4     3    41 1   
     5     3    42 1   
     6     4     5 1   
     7     5     6 1   
     8     5    16 1   
     9     6     7 1   
    10     6    19 1   
    11     7     8 1   
    12     7    43 1   
    13     8     9 1   
    14     8    44 1   
    15     9    10 1   
    16     9    11 1   
    17    11    12 1   
    18    11    45 1   
    19    12    13 1   
    20    12    45 1   
    21    12    46 1   
    22    12    47 1   
    23    13    14 1   
    24    13    48 1   
    25    13    49 1   
    26    14    15 1   
    27    15    50 1   
    28    15    51 1   
    29    15    52 1   
    30    16    17 1   
    31    16    53 1   
    32    17    18 1   
    33    17    20 1   
    34    18    19 1   
    35    18    54 1   
    36    19    55 1   
    37    20    21 1   
    38    20    56 1   
    39    21    22 1   
    40    21    29 1   
    41    22    23 1   
    42    23    24 1   
    43    23    30 1   
    44    24    25 1   
    45    24    27 1   
    46    25    26 1   
    47    27    28 1   
    48    27    29 1   
    49    28    57 1   
    50    28    58 1   
    51    29    59 1   
    52    30    31 1   
    53    30    60 1   
    54    31    32 1   
    55    31    37 1   
    56    31    40 1   
    57    32    33 1   
    58    32    61 1   
    59    32    62 1   
    60    33    34 1   
    61    33    35 1   
    62    33    63 1   
    63    34    39 1   
    64    34    64 1   
    65    34    65 1   
    66    35    36 1   
    67    35    66 1   
    68    35    67 1   
    69    36    37 1   
    70    36    38 1   
    71    36    68 1   
    72    37    69 1   
    73    37    70 1   
    74    38    39 1   
    75    38    71 1   
    76    38    72 1   
    77    39    40 1   
    78    39    73 1   
    79    40    74 1   
    80    40    75 1   
@<TRIPOS>SUBSTRUCTURE
     1 O17         1 TEMP              0 ****  ****    0 ROOT
