@<TRIPOS>MOLECULE
O19
   61    65     1     0     0
SMALL
bcc


@<TRIPOS>ATOM
      1 O10          0.0000     0.0000     0.0000 o          1 O19      -0.592100
      2 C9           1.2130     0.0000     0.0000 c          1 O19       0.556100
      3 C11          1.9660     0.0000     1.3050 c3         1 O19       0.043500
      4 C15          2.4480     1.4250     1.6330 c3         1 O19      -0.024400
      5 C14          1.7950     1.7690     2.9920 c3         1 O19      -0.021400
      6 C13          1.4860     0.3730     3.5890 c3         1 O19       0.139800
      7 N12          1.0700    -0.4200     2.4040 n7         1 O19      -0.535200
      8 N8           1.8870    -0.0060    -1.1670 ns         1 O19      -0.048100
      9 C6           1.1920    -0.1190    -2.3740 ca         1 O19      -0.069400
     10 C1           1.6530     0.5450    -3.5050 ca         1 O19      -0.129000
     11 C5           0.0440    -0.9010    -2.4440 ca         1 O19      -0.129000
     12 C4          -0.6410    -1.0160    -3.6340 ca         1 O19      -0.050500
     13 C3          -0.1850    -0.3450    -4.7680 cp         1 O19      -0.185500
     14 C2           0.9700     0.4350    -4.6970 ca         1 O19      -0.050500
     15 C7          -0.9210    -0.4660    -6.0490 cp         1 O19       0.534800
     16 N20         -2.0200    -1.2120    -6.1280 nb         1 O19      -0.687000
     17 C19         -2.6790    -1.3210    -7.2710 ca         1 O19       0.707900
     18 N18         -2.2760    -0.6990    -8.3700 nb         1 O19      -0.696000
     19 C17         -1.1910     0.0600    -8.3630 ca         1 O19       0.489200
     20 C16         -0.4740     0.2060    -7.1910 ca         1 O19      -0.417600
     21 N21         -3.8190    -2.1050    -7.3200 nu         1 O19      -0.285300
     22 C22         -4.5960    -2.1420    -8.4860 ca         1 O19      -0.022400
     23 C27         -5.2500    -3.3110    -8.8480 ca         1 O19      -0.094000
     24 C26         -6.0150    -3.3470    -9.9980 ca         1 O19      -0.126500
     25 C25         -6.1280    -2.2130   -10.7910 ca         1 O19       0.003600
     26 C24         -5.4740    -1.0430   -10.4290 ca         1 O19      -0.126500
     27 C23         -4.7140    -1.0060    -9.2770 ca         1 O19      -0.094000
     28 N28         -6.9030    -2.2490   -11.9570 nh         1 O19      -0.359000
     29 C33         -6.8860    -0.9490   -12.6410 c3         1 O19       0.093800
     30 C32         -7.7910    -1.0150   -13.8750 c3         1 O19       0.212900
     31 O31         -7.3530    -2.0800   -14.7240 os         1 O19      -0.411600
     32 C30         -7.3570    -3.3610   -14.0900 c3         1 O19       0.212900
     33 C29         -6.4480    -3.3180   -12.8580 c3         1 O19       0.093800
     34 H11          2.8150    -0.6700     1.2470 h1         1 O19       0.011700
     35 H8           2.8870     0.0310    -1.1670 hn         1 O19       0.166500
     36 H151         3.5270     1.4460     1.7190 hc         1 O19       0.020700
     37 H152         2.1120     2.1180     0.8710 hc         1 O19       0.020700
     38 H12          1.2050    -1.3940     2.5910 hn         1 O19       0.249800
     39 H141         2.4910     2.3080     3.6230 hc         1 O19       0.025700
     40 H142         0.8820     2.3320     2.8450 hc         1 O19       0.025700
     41 H131         0.6770     0.4370     4.3070 h1         1 O19       0.011700
     42 H132         2.3730    -0.0530     4.0400 h1         1 O19       0.011700
     43 H1           2.5500     1.1500    -3.4490 ha         1 O19       0.123500
     44 H5          -0.3100    -1.4220    -1.5620 ha         1 O19       0.123500
     45 H2           1.3290     0.9550    -5.5770 ha         1 O19       0.117500
     46 H4          -1.5370    -1.6230    -3.6870 ha         1 O19       0.117500
     47 H16          0.4170     0.8210    -7.1590 ha         1 O19       0.131000
     48 H21         -4.1020    -2.6280    -6.5140 hn         1 O19       0.292800
     49 H17         -0.8710     0.5650    -9.2670 h4         1 O19      -0.019900
     50 H27         -5.1620    -4.1950    -8.2290 ha         1 O19       0.119500
     51 H23         -4.2030    -0.0940    -8.9940 ha         1 O19       0.119500
     52 H26         -6.5250    -4.2590   -10.2800 ha         1 O19       0.117500
     53 H24         -5.5640    -0.1580   -11.0470 ha         1 O19       0.117500
     54 H331        -5.8740    -0.7150   -12.9480 h1         1 O19       0.026700
     55 H332        -7.2510    -0.1830   -11.9680 h1         1 O19       0.026700
     56 H291        -6.4950    -4.2690   -12.3410 h1         1 O19       0.026700
     57 H292        -5.4290    -3.1190   -13.1680 h1         1 O19       0.026700
     58 H321        -7.7340    -0.0770   -14.4140 h1         1 O19       0.012950
     59 H322        -8.8120    -1.1990   -13.5640 h1         1 O19       0.012950
     60 H301        -8.3670    -3.6090   -13.7840 h1         1 O19       0.012950
     61 H302        -6.9900    -4.1080   -14.7830 h1         1 O19       0.012950
@<TRIPOS>BOND
     1     1     2 2   
     2     2     3 1   
     3     2     8 1   
     4     3     4 1   
     5     3     7 1   
     6     3    34 1   
     7     4     5 1   
     8     4    36 1   
     9     4    37 1   
    10     5     6 1   
    11     5    39 1   
    12     5    40 1   
    13     6     7 1   
    14     6    41 1   
    15     6    42 1   
    16     7    38 1   
    17     8     9 1   
    18     8    35 1   
    19     9    10 ar  
    20     9    11 ar  
    21    10    14 ar  
    22    10    43 1   
    23    11    12 ar  
    24    11    44 1   
    25    12    13 ar  
    26    12    46 1   
    27    13    14 ar  
    28    13    15 1   
    29    14    45 1   
    30    15    16 ar  
    31    15    20 ar  
    32    16    17 ar  
    33    17    18 ar  
    34    17    21 1   
    35    18    19 ar  
    36    19    20 ar  
    37    19    49 1   
    38    20    47 1   
    39    21    22 1   
    40    21    48 1   
    41    22    23 ar  
    42    22    27 ar  
    43    23    24 ar  
    44    23    50 1   
    45    24    25 ar  
    46    24    52 1   
    47    25    26 ar  
    48    25    28 1   
    49    26    27 ar  
    50    26    53 1   
    51    27    51 1   
    52    28    29 1   
    53    28    33 1   
    54    29    30 1   
    55    29    54 1   
    56    29    55 1   
    57    30    31 1   
    58    30    58 1   
    59    30    59 1   
    60    31    32 1   
    61    32    33 1   
    62    32    60 1   
    63    32    61 1   
    64    33    56 1   
    65    33    57 1   
@<TRIPOS>SUBSTRUCTURE
     1 O19         1 TEMP              0 ****  ****    0 ROOT
