@<TRIPOS>MOLECULE
O1C
   84    86     1     0     0
SMALL
bcc


@<TRIPOS>ATOM
      1 C5          0.1780   -0.0220    0.2610 ce        1 O1C     -0.090200
      2 C10         1.6300   -0.1900    0.2260 ce        1 O1C     -0.120200
      3 C1          2.2930   -0.3930    1.5650 c3        1 O1C      0.181300
      4 C2          1.5870   -1.5060    2.3550 c3        1 O1C     -0.083700
      5 C3          0.0910   -1.1960    2.4730 c3        1 O1C      0.144100
      6 C4         -0.5490   -1.0200    1.0960 c3        1 O1C     -0.077200
      7 C6         -0.4990    0.9290   -0.4160 cf        1 O1C     -0.107000
      8 C7          0.1130    1.9490   -1.2350 cf        1 O1C     -0.159000
      9 C8         -0.5090    2.6820   -2.1750 c2        1 O1C     -0.070400
     10 C14         0.1810    3.7200   -2.9850 c3        1 O1C     -0.038500
     11 C13        -0.5480    5.0900   -2.8810 c3        1 O1C     -0.039000
     12 C12        -1.9320    4.8990   -3.4820 c3        1 O1C     -0.067400
     13 C11        -2.6940    3.8100   -2.7460 c3        1 O1C     -0.073400
     14 C9         -1.9300    2.5040   -2.6020 c3        1 O1C     -0.045200
     15 C15         1.6420    4.0640   -2.7390 c3        1 O1C     -0.074400
     16 C16         1.8130    5.4580   -3.3440 c3        1 O1C     -0.078400
     17 C17         0.4090    6.0030   -3.6810 c3        1 O1C     -0.053700
     18 C19         2.3430   -0.1850   -0.9050 c2        1 O1C     -0.180000
     19 O2         -0.5110   -2.2930    3.1510 oh        1 O1C     -0.595800
     20 O1          2.3560    0.8220    2.2960 oh        1 O1C     -0.589800
     21 C20         0.3020    7.5020   -3.4240 c3        1 O1C     -0.054700
     22 C22         1.3240    8.2570   -4.2730 c3        1 O1C     -0.079400
     23 C18        -0.6470    5.5470   -1.4350 c3        1 O1C     -0.083100
     24 C21        -1.0880    8.0270   -3.7290 c3        1 O1C     -0.092100
     25 C23         1.6500    9.6170   -3.6900 c3        1 O1C     -0.079400
     26 C24         2.6720   10.3380   -4.5420 c3        1 O1C     -0.064400
     27 C25         2.9080   11.7840   -4.0950 c3        1 O1C      0.147800
     28 O25         1.6600   12.4590   -4.2630 oh        1 O1C     -0.597800
     29 C27         3.3500   11.8610   -2.6380 c3        1 O1C     -0.123100
     30 C26         3.9630   12.4280   -4.9900 c3        1 O1C     -0.123100
     31 C28         2.2110   -1.6840    3.7300 c3        1 O1C     -0.077400
     32 C29         3.5070   -2.4620    3.6630 c3        1 O1C     -0.080400
     33 C30         4.0960   -2.6270    5.0540 c3        1 O1C      0.132400
     34 O31         5.2990   -3.3660    4.9110 oh        1 O1C     -0.603800
     35 H1          3.3790   -0.6730    1.4320 h1        1 O1C      0.082700
     36 H2          1.6960   -2.4650    1.7750 hc        1 O1C      0.073700
     37 H3         -0.0530   -0.2620    3.0870 h1        1 O1C      0.033700
     38 H41        -1.6230   -0.7220    1.2290 hc        1 O1C      0.056700
     39 H42        -0.5410   -2.0130    0.5680 hc        1 O1C      0.056700
     40 H6         -1.6000    0.9640   -0.3260 ha        1 O1C      0.123000
     41 H7          1.1900    2.1210   -1.0420 ha        1 O1C      0.136000
     42 H14         0.1010    3.3790   -4.0620 hc        1 O1C      0.055700
     43 H121       -1.8330    4.6260   -4.5660 hc        1 O1C      0.043200
     44 H122       -2.5170    5.8530   -3.4280 hc        1 O1C      0.043200
     45 H111       -2.9710    4.1850   -1.7250 hc        1 O1C      0.040700
     46 H112       -3.6520    3.6040   -3.2930 hc        1 O1C      0.040700
     47 H91        -2.4880    1.8450   -1.8860 hc        1 O1C      0.047200
     48 H92        -1.9200    1.9740   -3.5960 hc        1 O1C      0.047200
     49 H151        2.3230    3.3210   -3.2200 hc        1 O1C      0.045700
     50 H152        1.8730    4.0830   -1.6440 hc        1 O1C      0.045700
     51 H161        2.3310    6.1310   -2.6170 hc        1 O1C      0.042700
     52 H162        2.4370    5.4100   -4.2700 hc        1 O1C      0.042700
     53 H17         0.2090    5.8300   -4.7750 hc        1 O1C      0.046700
     54 H191        1.8780   -0.0510   -1.8910 ha        1 O1C      0.121000
     55 H192        3.4330   -0.3200   -0.9110 ha        1 O1C      0.121000
     56 HO2        -1.4560   -2.1060    3.1940 ho        1 O1C      0.400000
     57 HO1         1.4600    1.1760    2.3500 ho        1 O1C      0.401000
     58 H20         0.5290    7.6960   -2.3380 hc        1 O1C      0.050700
     59 H221        2.2740    7.6660   -4.3540 hc        1 O1C      0.040200
     60 H222        0.9230    8.3780   -5.3130 hc        1 O1C      0.040200
     61 H181        0.3650    5.8070   -1.0400 hc        1 O1C      0.037700
     62 H182       -1.3050    6.4450   -1.3530 hc        1 O1C      0.037700
     63 H183       -1.0720    4.7360   -0.7950 hc        1 O1C      0.037700
     64 H211       -1.8060    7.7380   -2.9240 hc        1 O1C      0.035033
     65 H212       -1.4590    7.6210   -4.7010 hc        1 O1C      0.035033
     66 H213       -1.0780    9.1420   -3.7950 hc        1 O1C      0.035033
     67 H231        0.7230   10.2460   -3.6210 hc        1 O1C      0.048700
     68 H232        2.0470    9.4920   -2.6480 hc        1 O1C      0.048700
     69 H241        2.3230   10.3540   -5.6070 hc        1 O1C      0.047200
     70 H242        3.6530    9.7970   -4.5060 hc        1 O1C      0.047200
     71 H25         1.8000   13.3720   -3.9850 ho        1 O1C      0.397000
     72 H271        3.6630   12.9020   -2.3830 hc        1 O1C      0.042533
     73 H272        2.5060   11.5700   -1.9680 hc        1 O1C      0.042533
     74 H273        4.2100   11.1730   -2.4630 hc        1 O1C      0.042533
     75 H261        4.1220   13.4930   -4.6970 hc        1 O1C      0.042533
     76 H262        4.9300   11.8810   -4.8960 hc        1 O1C      0.042533
     77 H263        3.6290   12.3990   -6.0540 hc        1 O1C      0.042533
     78 H281        2.3960   -0.6740    4.1840 hc        1 O1C      0.058200
     79 H282        1.4850   -2.2290    4.3910 hc        1 O1C      0.058200
     80 H291        3.3320   -3.4740    3.2150 hc        1 O1C      0.053700
     81 H292        4.2500   -1.9320    3.0110 hc        1 O1C      0.053700
     82 H301        3.3830   -3.1820    5.7210 h1        1 O1C      0.021200
     83 H302        4.3150   -1.6250    5.5110 h1        1 O1C      0.021200
     84 H31         5.6690   -3.4610    5.7960 ho        1 O1C      0.398000
@<TRIPOS>BOND
     1    1    2 1   
     2    1    6 1   
     3    1    7 2   
     4    2    3 1   
     5    2   18 2   
     6    3    4 1   
     7    3   20 1   
     8    3   35 1   
     9    4    5 1   
    10    4   31 1   
    11    4   36 1   
    12    5    6 1   
    13    5   19 1   
    14    5   37 1   
    15    6   38 1   
    16    6   39 1   
    17    7    8 1   
    18    7   40 1   
    19    8    9 2   
    20    8   41 1   
    21    9   10 1   
    22    9   14 1   
    23   10   11 1   
    24   10   15 1   
    25   10   42 1   
    26   11   12 1   
    27   11   17 1   
    28   11   23 1   
    29   12   13 1   
    30   12   43 1   
    31   12   44 1   
    32   13   14 1   
    33   13   45 1   
    34   13   46 1   
    35   14   47 1   
    36   14   48 1   
    37   15   16 1   
    38   15   49 1   
    39   15   50 1   
    40   16   17 1   
    41   16   51 1   
    42   16   52 1   
    43   17   21 1   
    44   17   53 1   
    45   18   54 1   
    46   18   55 1   
    47   19   56 1   
    48   20   57 1   
    49   21   22 1   
    50   21   24 1   
    51   21   58 1   
    52   22   25 1   
    53   22   59 1   
    54   22   60 1   
    55   23   61 1   
    56   23   62 1   
    57   23   63 1   
    58   24   64 1   
    59   24   65 1   
    60   24   66 1   
    61   25   26 1   
    62   25   67 1   
    63   25   68 1   
    64   26   27 1   
    65   26   69 1   
    66   26   70 1   
    67   27   28 1   
    68   27   29 1   
    69   27   30 1   
    70   28   71 1   
    71   29   72 1   
    72   29   73 1   
    73   29   74 1   
    74   30   75 1   
    75   30   76 1   
    76   30   77 1   
    77   31   32 1   
    78   31   78 1   
    79   31   79 1   
    80   32   33 1   
    81   32   80 1   
    82   32   81 1   
    83   33   34 1   
    84   33   82 1   
    85   33   83 1   
    86   34   84 1   
@<TRIPOS>SUBSTRUCTURE
     1 O1C         1 TEMP              0 ****  ****    0 ROOT
