@<TRIPOS>MOLECULE
molecule
   84    86     1     0     0
SMALL
bcc


@<TRIPOS>ATOM
      1 C5           0.0000     0.0000     0.0000 ce         1 O1C      -0.079200
      2 C10          1.4780     0.0000     0.0000 ce         1 O1C      -0.097200
      3 C1           2.1570     0.0000     1.3600 c3         1 O1C       0.190300
      4 C2           1.4840    -1.0640     2.2320 c3         1 O1C      -0.061700
      5 C3          -0.0120    -0.7680     2.3490 c3         1 O1C       0.154100
      6 C4          -0.6820    -0.9320     0.9820 c3         1 O1C      -0.060200
      7 C6          -0.7070     0.7860    -0.8370 cf         1 O1C      -0.120000
      8 C7          -0.0110     1.6740    -1.7720 cf         1 O1C      -0.161000
      9 C8          -0.7100     2.4510    -2.5990 c2         1 O1C      -0.093400
     10 C14         -0.0530     3.3800    -3.5760 c3         1 O1C      -0.036500
     11 C13         -0.5880     4.8020    -3.2440 c3         1 O1C      -0.059000
     12 C12         -2.0650     4.8180    -3.5410 c3         1 O1C      -0.064400
     13 C11         -2.7650     3.8890    -2.5350 c3         1 O1C      -0.078400
     14 C9          -2.2320     2.4600    -2.6180 c3         1 O1C      -0.044200
     15 C15          1.4560     3.5830    -3.4240 c3         1 O1C      -0.078400
     16 C16          1.6880     4.9610    -4.1060 c3         1 O1C      -0.081400
     17 C17          0.3340     5.7130    -4.0390 c3         1 O1C      -0.053700
     18 C19          2.1810     0.0080    -1.1330 c2         1 O1C      -0.210000
     19 O2          -0.6040    -1.6750     3.2800 oh         1 O1C      -0.611800
     20 O1           2.0200     1.2840     1.9720 oh         1 O1C      -0.596800
     21 C20          0.5060     7.0530    -3.3220 c3         1 O1C      -0.069700
     22 C22          1.4640     7.9400    -4.1190 c3         1 O1C      -0.082400
     23 C18         -0.3700     5.0470    -1.7500 c3         1 O1C      -0.093100
     24 C21         -0.8530     7.7470    -3.2030 c3         1 O1C      -0.096100
     25 C23          1.7340     9.2290    -3.3400 c3         1 O1C      -0.082400
     26 C24          2.6920    10.1160    -4.1380 c3         1 O1C      -0.066400
     27 C25          2.9620    11.4050    -3.3590 c3         1 O1C       0.146800
     28 O25          1.7320    12.1010    -3.1490 oh         1 O1C      -0.603800
     29 C27          3.5910    11.0620    -2.0070 c3         1 O1C      -0.119600
     30 C26          3.9200    12.2920    -4.1570 c3         1 O1C      -0.119600
     31 C28          2.1150    -1.0500     3.6260 c3         1 O1C      -0.080400
     32 C29          3.5830    -1.4680     3.5250 c3         1 O1C      -0.084400
     33 C30          4.2150    -1.4540     4.9190 c3         1 O1C       0.140400
     34 O31          5.5850    -1.8450     4.8240 oh         1 O1C      -0.614800
     35 H1           3.2060    -0.2410     1.2400 h1         1 O1C       0.045700
     36 H2           1.6210    -2.0380     1.7790 hc         1 O1C       0.070700
     37 H3          -0.1490     0.2500     2.6950 h1         1 O1C       0.054700
     38 H41         -0.5750    -1.9560     0.6450 hc         1 O1C       0.055200
     39 H42         -1.7320    -0.6760     1.0580 hc         1 O1C       0.055200
     40 H6          -1.7900     0.7650    -0.8150 ha         1 O1C       0.133000
     41 H7           1.0720     1.6730    -1.8160 ha         1 O1C       0.146000
     42 H14         -0.3020     3.1070    -4.5940 hc         1 O1C       0.064700
     43 H121        -2.4470     5.8260    -3.4330 hc         1 O1C       0.045200
     44 H122        -2.2380     4.4610    -4.5490 hc         1 O1C       0.045200
     45 H111        -2.6010     4.2680    -1.5330 hc         1 O1C       0.043200
     46 H112        -3.8280     3.8800    -2.7450 hc         1 O1C       0.043200
     47 H91         -2.5790     2.0040    -3.5380 hc         1 O1C       0.048200
     48 H92         -2.6010     1.8930    -1.7720 hc         1 O1C       0.048200
     49 H151         1.7320     3.6240    -2.3770 hc         1 O1C       0.047200
     50 H152         2.0010     2.8030    -3.9420 hc         1 O1C       0.047200
     51 H161         2.4480     5.5170    -3.5710 hc         1 O1C       0.044200
     52 H162         1.9820     4.8180    -5.1390 hc         1 O1C       0.044200
     53 H17         -0.0600     5.8630    -5.0370 hc         1 O1C       0.053700
     54 H191         3.2640     0.0110    -1.0980 ha         1 O1C       0.122000
     55 H192         1.6710     0.0140    -2.0880 ha         1 O1C       0.122000
     56 HO2         -1.3810    -1.2870     3.6460 ho         1 O1C       0.402000
     57 HO1          2.8600     1.7110     1.9990 ho         1 O1C       0.402000
     58 H20          0.9120     6.8830    -2.3320 hc         1 O1C       0.057700
     59 H221         1.0190     8.1830    -5.0760 hc         1 O1C       0.040700
     60 H222         2.3970     7.4120    -4.2780 hc         1 O1C       0.040700
     61 H181        -0.6840     4.1730    -1.1910 hc         1 O1C       0.041033
     62 H182        -0.9530     5.9040    -1.4350 hc         1 O1C       0.041033
     63 H183         0.6800     5.2360    -1.5640 hc         1 O1C       0.041033
     64 H211        -1.4830     7.4510    -4.0330 hc         1 O1C       0.037700
     65 H212        -0.7120     8.8210    -3.2220 hc         1 O1C       0.037700
     66 H213        -1.3240     7.4610    -2.2710 hc         1 O1C       0.037700
     67 H231         2.1790     8.9850    -2.3830 hc         1 O1C       0.052200
     68 H232         0.8010     9.7560    -3.1810 hc         1 O1C       0.052200
     69 H241         3.6250     9.5880    -4.2960 hc         1 O1C       0.047200
     70 H242         2.2470    10.3580    -5.0950 hc         1 O1C       0.047200
     71 H25          1.9090    13.0180    -3.0130 ho         1 O1C       0.401000
     72 H271         4.1060    11.9310    -1.6180 hc         1 O1C       0.041533
     73 H272         2.8150    10.7610    -1.3140 hc         1 O1C       0.041533
     74 H273         4.2970    10.2500    -2.1330 hc         1 O1C       0.041533
     75 H261         4.1360    13.1900    -3.5910 hc         1 O1C       0.041533
     76 H262         4.8410    11.7530    -4.3430 hc         1 O1C       0.041533
     77 H263         3.4620    12.5610    -5.1010 hc         1 O1C       0.041533
     78 H281         1.5860    -1.7430     4.2690 hc         1 O1C       0.057700
     79 H282         2.0510    -0.0520     4.0420 hc         1 O1C       0.057700
     80 H291         3.6460    -2.4660     3.1090 hc         1 O1C       0.049200
     81 H292         4.1120    -0.7740     2.8820 hc         1 O1C       0.049200
     82 H301         4.1520    -0.4560     5.3340 h1         1 O1C       0.020700
     83 H302         3.6850    -2.1470     5.5620 h1         1 O1C       0.020700
     84 H31          5.9340    -1.9820     5.6900 ho         1 O1C       0.402000
@<TRIPOS>BOND
     1     1     2 1
     2     1     6 1
     3     1     7 2
     4     2     3 1
     5     2    18 2
     6     3     4 1
     7     3    20 1
     8     3    35 1
     9     4     5 1
    10     4    31 1
    11     4    36 1
    12     5     6 1
    13     5    19 1
    14     5    37 1
    15     6    38 1
    16     6    39 1
    17     7     8 1
    18     7    40 1
    19     8     9 2
    20     8    41 1
    21     9    10 1
    22     9    14 1
    23    10    11 1
    24    10    15 1
    25    10    42 1
    26    11    12 1
    27    11    17 1
    28    11    23 1
    29    12    13 1
    30    12    43 1
    31    12    44 1
    32    13    14 1
    33    13    45 1
    34    13    46 1
    35    14    47 1
    36    14    48 1
    37    15    16 1
    38    15    49 1
    39    15    50 1
    40    16    17 1
    41    16    51 1
    42    16    52 1
    43    17    21 1
    44    17    53 1
    45    18    54 1
    46    18    55 1
    47    19    56 1
    48    20    57 1
    49    21    22 1
    50    21    24 1
    51    21    58 1
    52    22    25 1
    53    22    59 1
    54    22    60 1
    55    23    61 1
    56    23    62 1
    57    23    63 1
    58    24    64 1
    59    24    65 1
    60    24    66 1
    61    25    26 1
    62    25    67 1
    63    25    68 1
    64    26    27 1
    65    26    69 1
    66    26    70 1
    67    27    28 1
    68    27    29 1
    69    27    30 1
    70    28    71 1
    71    29    72 1
    72    29    73 1
    73    29    74 1
    74    30    75 1
    75    30    76 1
    76    30    77 1
    77    31    32 1
    78    31    78 1
    79    31    79 1
    80    32    33 1
    81    32    80 1
    82    32    81 1
    83    33    34 1
    84    33    82 1
    85    33    83 1
    86    34    84 1
@<TRIPOS>SUBSTRUCTURE
     1 O1C         1 TEMP              0 ****  ****    0 ROOT
