@<TRIPOS>MOLECULE
O1G
   49    51     1     0     0
SMALL
bcc


@<TRIPOS>ATOM
      1 P            0.0000     0.0000     0.0000 p5         1 O1G       0.905500
      2 C3          -3.4380    -4.5550    -2.7790 c2         1 O1G       0.037000
      3 O3          -4.6440    -5.0490    -3.1570 oh         1 O1G      -0.227000
      4 C1'         -9.1440    -2.2400    -0.6900 c3         1 O1G       0.180000
      5 N1'         -1.0980    -4.7760    -2.6920 n2         1 O1G      -0.050000
      6 C2'         -7.8570    -3.0310    -0.9410 c3         1 O1G       0.045000
      7 O2'         -7.2100    -3.2990     0.3040 oh         1 O1G      -0.286000
      8 C9A         -2.2710    -5.2540    -3.0530 c2         1 O1G      -0.206000
      9 C2A         -2.3460    -6.5750    -3.7720 c3         1 O1G      -0.042000
     10 C3'         -6.9270    -2.2050    -1.8350 c3         1 O1G      -0.058000
     11 N3'         -5.7250    -2.9840    -2.1440 n2         1 O1G      -0.052000
     12 O3B         -8.8330    -1.0330     0.0080 oh         1 O1G      -0.301000
     13 C4'         -7.6600    -1.8570    -3.1350 c3         1 O1G       0.047000
     14 O4'         -6.8270    -1.0260    -3.9450 oh         1 O1G      -0.294000
     15 C4A         -3.3500    -3.3250    -2.1070 c3         1 O1G      -0.226000
     16 C4B         -4.5610    -2.5400    -1.7970 c2         1 O1G      -0.276000
     17 C5'         -8.9540    -1.1130    -2.7980 c3         1 O1G       0.017000
     18 O5'         -9.7590    -1.9240    -1.9400 os         1 O1G      -0.237000
     19 C5A         -2.0800    -2.8640    -1.7400 c2         1 O1G       0.026000
     20 C5T         -1.9230    -1.5520    -1.0170 c3         1 O1G       0.153000
     21 C6'         -9.7220    -0.8150    -4.0880 c3         1 O1G       0.139000
     22 C6A         -0.9750    -3.6310    -2.0490 c2         1 O1G      -0.108000
     23 OP1          1.6100     0.0000     0.0000 o          1 O1G      -0.754167
     24 OP2         -0.5360     0.0000     1.5180 o          1 O1G      -0.754167
     25 OP3         -0.4930     1.2090    -0.6960 o          1 O1G      -0.754167
     26 OP4         -0.5370    -1.3140    -0.7590 os         1 O1G      -0.651000
     27 OP5        -10.8700    -0.0210    -3.7860 os         1 O1G      -0.629000
     28 P'         -11.9100     0.4800    -4.9080 p5         1 O1G       0.914500
     29 OP6        -13.1430     1.2360    -4.2000 o          1 O1G      -0.766833
     30 OP7        -11.1660     1.4940    -5.9150 o          1 O1G      -0.766833
     31 OP8        -12.4160    -0.6860    -5.6670 o          1 O1G      -0.766833
     32 H1          -4.7770    -5.8940    -2.7600 ho         1 O1G       0.185000
     33 H4          -7.6260    -4.0340     0.7220 ho         1 O1G       0.154000
     34 H5          -1.3460    -6.9140    -4.0120 hc         1 O1G       0.030667
     35 H6          -2.8320    -7.3050    -3.1360 hc         1 O1G       0.030667
     36 H7          -2.9160    -6.4570    -4.6860 hc         1 O1G       0.030667
     37 H8          -6.6510    -1.2910    -1.3220 h1         1 O1G       0.119000
     38 H9          -9.4180    -0.9330     0.7410 ho         1 O1G       0.172000
     39 H10         -7.8980    -2.7700    -3.6680 h1         1 O1G       0.038000
     40 H11         -6.7920    -1.3750    -4.8210 ho         1 O1G       0.179000
     41 H12         -4.0910    -2.5800    -2.7720 DU         1 O1G       0.322000
     42 H13         -8.7140    -0.1850    -2.2930 h1         1 O1G       0.085000
     43 H14         -2.4640    -1.5890    -0.0790 h1         1 O1G       0.063500
     44 H15         -2.3180    -0.7520    -1.6310 h1         1 O1G       0.063500
     45 H16         -9.0800    -0.2760    -4.7740 h1         1 O1G       0.015000
     46 H17        -10.0370    -1.7460    -4.5440 h1         1 O1G       0.015000
     47 H18          0.0000    -3.2700    -1.7430 h4         1 O1G       0.178000
     48 H2          -9.8240    -2.8400    -0.0970 h2         1 O1G       0.018000
     49 H3          -8.0990    -3.9630    -1.4370 h1         1 O1G       0.042000
@<TRIPOS>BOND
     1     1    23 1   
     2     1    24 1   
     3     1    25 1   
     4     1    26 1   
     5     2     3 1   
     6     2     8 1   
     7     2    15 1   
     8     3    32 1   
     9     4     6 1   
    10     4    12 1   
    11     4    18 1   
    12     4    48 1   
    13     5     8 1   
    14     5    22 1   
    15     6     7 1   
    16     6    10 1   
    17     6    49 1   
    18     7    33 1   
    19     8     9 1   
    20     9    34 1   
    21     9    35 1   
    22     9    36 1   
    23    10    11 1   
    24    10    13 1   
    25    10    37 1   
    26    11    16 1   
    27    12    38 1   
    28    13    14 1   
    29    13    17 1   
    30    13    39 1   
    31    14    40 1   
    32    15    16 1   
    33    15    19 1   
    34    15    41 1   
    35    16    41 1   
    36    17    18 1   
    37    17    21 1   
    38    17    42 1   
    39    19    20 1   
    40    19    22 1   
    41    20    26 1   
    42    20    43 1   
    43    20    44 1   
    44    21    27 1   
    45    21    45 1   
    46    21    46 1   
    47    22    47 1   
    48    27    28 1   
    49    28    29 1   
    50    28    30 1   
    51    28    31 1   
@<TRIPOS>SUBSTRUCTURE
     1 O1G         1 TEMP              0 ****  ****    0 ROOT
