@<TRIPOS>MOLECULE
molecule
   49    50     1     0     0
SMALL
bcc


@<TRIPOS>ATOM
      1 P            0.0000     0.0000     0.0000 p5         1 O1G       1.179900
      2 C3          -3.4380    -4.5550    -2.7790 ca         1 O1G       0.008800
      3 O3          -4.6440    -5.0490    -3.1570 oh         1 O1G      -0.482100
      4 C1'         -9.1440    -2.2400    -0.6900 c3         1 O1G       0.313900
      5 N1'         -1.0980    -4.7760    -2.6920 nb         1 O1G      -0.708000
      6 C2'         -7.8570    -3.0310    -0.9410 c3         1 O1G       0.130100
      7 O2'         -7.2100    -3.2990     0.3040 oh         1 O1G      -0.589800
      8 C9A         -2.2710    -5.2540    -3.0530 ca         1 O1G       0.311600
      9 C2A         -2.3460    -6.5750    -3.7720 c3         1 O1G      -0.125400
     10 C3'         -6.9270    -2.2050    -1.8350 c3         1 O1G       0.109500
     11 N3'         -5.7250    -2.9840    -2.1440 n2         1 O1G      -0.607900
     12 O3B         -8.8330    -1.0330     0.0080 oh         1 O1G      -0.599800
     13 C4'         -7.6600    -1.8570    -3.1350 c3         1 O1G       0.130100
     14 O4'         -6.8270    -1.0260    -3.9450 oh         1 O1G      -0.587800
     15 C4A         -3.3500    -3.3250    -2.1070 ca         1 O1G      -0.144900
     16 C4B         -4.5610    -2.5400    -1.7970 ce         1 O1G       0.488800
     17 C5'         -8.9540    -1.1130    -2.7980 c3         1 O1G       0.115100
     18 O5'         -9.7590    -1.9240    -1.9400 os         1 O1G      -0.396600
     19 C5A         -2.0800    -2.8640    -1.7400 ca         1 O1G      -0.127600
     20 C5T         -1.9230    -1.5520    -1.0170 c3         1 O1G       0.244700
     21 C6'         -9.7220    -0.8150    -4.0880 c3         1 O1G       0.233400
     22 C6A         -0.9750    -3.6310    -2.0490 ca         1 O1G       0.416200
     23 OP1          1.6100     0.0000     0.0000 o          1 O1G      -0.909167
     24 OP2         -0.5360     0.0000     1.5180 o          1 O1G      -0.909167
     25 OP3         -0.4930     1.2090    -0.6960 o          1 O1G      -0.909167
     26 OP4         -0.5370    -1.3140    -0.7590 os         1 O1G      -0.586200
     27 OP5        -10.8700    -0.0210    -3.7860 os         1 O1G      -0.572200
     28 P'         -11.9100     0.4800    -4.9080 p5         1 O1G       1.196900
     29 OP6        -13.1430     1.2360    -4.2000 o          1 O1G      -0.919833
     30 OP7        -11.1660     1.4940    -5.9150 o          1 O1G      -0.919833
     31 OP8        -12.4160    -0.6860    -5.6670 o          1 O1G      -0.919833
     32 H1          -4.7880    -5.8820    -2.7390 ho         1 O1G       0.390000
     33 H4          -7.4730    -4.1470     0.6190 ho         1 O1G       0.376000
     34 H5          -1.3460    -6.9130    -4.0140 hc         1 O1G       0.028700
     35 H6          -2.9180    -6.4580    -4.6850 hc         1 O1G       0.028700
     36 H7          -2.8300    -7.3060    -3.1350 hc         1 O1G       0.028700
     37 H8          -6.6510    -1.2910    -1.3220 h1         1 O1G       0.078700
     38 H9          -9.4840    -0.8760     0.6720 ho         1 O1G       0.393000
     39 H10         -7.8980    -2.7700    -3.6680 h1         1 O1G       0.037700
     40 H11         -6.7670    -1.3920    -4.8130 ho         1 O1G       0.401000
     41 H12         -4.4740    -1.5920    -1.2790 h4         1 O1G       0.009800
     42 H13         -8.7140    -0.1850    -2.2930 h1         1 O1G       0.077700
     43 H14         -2.4640    -1.5890    -0.0790 h1         1 O1G       0.046700
     44 H15         -2.3180    -0.7520    -1.6310 h1         1 O1G       0.046700
     45 H16         -9.0800    -0.2760    -4.7740 h1         1 O1G       0.021700
     46 H17        -10.0370    -1.7460    -4.5440 h1         1 O1G       0.021700
     47 H18          0.0030    -3.2730    -1.7500 h4         1 O1G       0.077100
     48 H2          -9.8240    -2.8400    -0.0970 h2         1 O1G       0.031700
     49 H3          -8.0990    -3.9630    -1.4370 h1         1 O1G       0.042700
@<TRIPOS>BOND
     1     9     8 1
     2     3     2 1
     3     7     6 1
     4     8     2 ar
     5     8     5 ar
     6     2    15 ar
     7     5    22 ar
     8     6     4 1
     9     6    10 1
    10    12     4 1
    11     4    18 1
    12    11    10 1
    13    11    16 2
    14    15    16 1
    15    15    19 ar
    16    10    13 1
    17    22    19 ar
    18    19    20 1
    19    18    17 1
    20    13    17 1
    21    13    14 1
    22    17    21 1
    23    20    26 1
    24    26     1 1
    25    21    27 1
    26    27    28 1
    27    25     1 1
    28     1    24 1
    29     1    23 1
    30    31    28 1
    31    28    29 1
    32    28    30 1
    33     3    32 1
    34     4    48 1
    35     6    49 1
    36     7    33 1
    37     9    34 1
    38     9    35 1
    39     9    36 1
    40    10    37 1
    41    12    38 1
    42    13    39 1
    43    14    40 1
    44    16    41 1
    45    17    42 1
    46    20    43 1
    47    20    44 1
    48    21    45 1
    49    21    46 1
    50    22    47 1
@<TRIPOS>SUBSTRUCTURE
     1 O1G         1 TEMP              0 ****  ****    0 ROOT
