@<TRIPOS>MOLECULE
molecule
   46    49     1     0     0
SMALL
bcc


@<TRIPOS>ATOM
      1 C1           0.0000     0.0000     0.0000 ca         1 O1Z      -0.021000
      2 S1           0.0980     1.4710     4.9200 ss         1 O1Z      -0.219300
      3 C2           1.4060     0.0000     0.0000 ca         1 O1Z      -0.126000
      4 N2           1.4260     1.1500     7.0010 nc         1 O1Z      -0.808000
      5 C3           2.0860     0.0000     1.1750 ca         1 O1Z      -0.082000
      6 N3          -0.5530     2.3890     7.4130 nu         1 O1Z      -0.880900
      7 O3           3.2790    -0.4990     3.7090 o          1 O1Z      -0.535100
      8 C4           0.0170    -0.0040     2.4370 ca         1 O1Z      -0.091000
      9 N4           3.3500    -0.1000     6.3940 nv         1 O1Z      -1.051500
     10 C5          -0.7020    -0.0060     1.2330 ca         1 O1Z      -0.044000
     11 C6          -0.7260    -0.0010    -1.2040 ca         1 O1Z      -0.119000
     12 C7          -2.0860    -0.0010    -1.1710 ca         1 O1Z      -0.120000
     13 C8          -2.7760     0.0000     0.0400 ca         1 O1Z      -0.129000
     14 C9          -2.1090    -0.0100     1.2260 ca         1 O1Z      -0.112000
     15 C10          1.4010    -0.0000     2.4030 ca         1 O1Z      -0.154600
     16 C11          2.1670    -0.0010     3.6700 c          1 O1Z       0.631300
     17 C12          1.6100     0.5720     4.8280 cd         1 O1Z      -0.316000
     18 C13          2.1530     0.5320     6.1000 cc         1 O1Z       0.767200
     19 C14          0.3200     1.7040     6.5980 cd         1 O1Z       0.745300
     20 C15         -0.2640     2.5310     8.8420 c3         1 O1Z       0.242500
     21 C16         -1.5700     2.7400     9.6090 c3         1 O1Z      -0.094400
     22 C17         -1.2670     2.8870    11.1020 c3         1 O1Z      -0.076400
     23 C18         -0.3490     4.0910    11.3200 c3         1 O1Z      -0.084400
     24 C19          0.9570     3.8820    10.5520 c3         1 O1Z      -0.076400
     25 C20          0.6550     3.7350     9.0600 c3         1 O1Z      -0.094400
     26 H2           1.9470     0.0000    -0.9380 ha         1 O1Z       0.136000
     27 H3           3.1690     0.0030     1.1660 ha         1 O1Z       0.148000
     28 HN3         -1.3920     2.7800     7.0320 hn         1 O1Z       0.451800
     29 H4          -0.5060    -0.0050     3.3860 ha         1 O1Z       0.146000
     30 HN4          4.2090     0.4120     6.3550 hn         1 O1Z       0.445800
     31 HN4A         3.3520    -1.0570     6.6870 hn         1 O1Z       0.445800
     32 H6          -0.2050    -0.0020    -2.1530 ha         1 O1Z       0.134000
     33 H7          -2.6420     0.0070    -2.1010 ha         1 O1Z       0.129000
     34 H8          -3.8590     0.0000     0.0370 ha         1 O1Z       0.129000
     35 H9          -2.6580    -0.0090     2.1600 ha         1 O1Z       0.132000
     36 H15          0.2270     1.6360     9.2060 h1         1 O1Z       0.084700
     37 H16         -2.2180     1.8850     9.4550 hc         1 O1Z       0.048450
     38 H16A        -2.0580     3.6380     9.2500 hc         1 O1Z       0.048450
     39 H17         -0.7760     1.9900    11.4590 hc         1 O1Z       0.046450
     40 H17A        -2.1930     3.0380    11.6440 hc         1 O1Z       0.046450
     41 H18         -0.1340     4.1930    12.3760 hc         1 O1Z       0.042700
     42 H18A        -0.8400     4.9870    10.9580 hc         1 O1Z       0.042700
     43 H19          1.6050     4.7370    10.7050 hc         1 O1Z       0.046450
     44 H19A         1.4450     2.9840    10.9100 hc         1 O1Z       0.046450
     45 H20          1.5800     3.5840     8.5180 hc         1 O1Z       0.048450
     46 H20A         0.1630     4.6320     8.7020 hc         1 O1Z       0.048450
@<TRIPOS>BOND
     1     3     1 ar
     2    10     1 ar
     3     1    11 ar
     4    17     2 1
     5    19     2 1
     6     5     3 ar
     7     3    26 1
     8    18     4 1
     9     4    19 2
    10    15     5 ar
    11     5    27 1
    12    19     6 1
    13     6    20 1
    14     6    28 1
    15     7    16 2
    16    15     8 ar
    17     8    10 ar
    18     8    29 1
    19     9    18 1
    20     9    30 1
    21     9    31 1
    22    10    14 ar
    23    11    12 ar
    24    11    32 1
    25    13    12 ar
    26    12    33 1
    27    14    13 ar
    28    13    34 1
    29    14    35 1
    30    16    15 1
    31    17    16 1
    32    18    17 2
    33    20    21 1
    34    20    25 1
    35    20    36 1
    36    21    22 1
    37    21    37 1
    38    21    38 1
    39    22    23 1
    40    22    39 1
    41    22    40 1
    42    24    23 1
    43    23    41 1
    44    23    42 1
    45    25    24 1
    46    24    43 1
    47    24    44 1
    48    25    45 1
    49    25    46 1
@<TRIPOS>SUBSTRUCTURE
     1 O1Z         1 TEMP              0 ****  ****    0 ROOT
