@<TRIPOS>MOLECULE
O2
    2     1     1     0     0
SMALL
bcc


@<TRIPOS>ATOM
      1 O1         -0.0700   -0.0750   -0.4220 o         1 O2       0.000000
      2 O2          0.0700    0.0750    0.4220 o         1 O2      -0.000000
@<TRIPOS>BOND
     1    1    2 2   
@<TRIPOS>SUBSTRUCTURE
     1 O2          1 TEMP              0 ****  ****    0 ROOT
