@<TRIPOS>MOLECULE
O22
   38    39     1     0     0
SMALL
bcc


@<TRIPOS>ATOM
      1 O2           0.0000     0.0000     0.0000 o          1 O22      -0.452100
      2 C15          1.2160     0.0000     0.0000 c          1 O22       0.352700
      3 N4           1.8900     0.0000     1.1680 nz         1 O22       0.139600
      4 C12          1.9540    -0.0060    -1.2780 ca         1 O22      -0.213600
      5 C11          3.3510    -0.0130    -1.2790 ca         1 O22      -0.062000
      6 C10          4.0370    -0.0250    -2.4720 ca         1 O22      -0.146000
      7 C13          1.2560    -0.0130    -2.4890 ca         1 O22      -0.062000
      8 C14          1.9480    -0.0190    -3.6800 ca         1 O22      -0.146000
      9 C9           3.3390    -0.0300    -3.6770 ca         1 O22       0.126600
     10 N3           4.0350    -0.0420    -4.8830 nu         1 O22      -0.305300
     11 C8           3.5110    -0.7100    -5.9800 ca         1 O22       0.500200
     12 C7           4.1520    -0.6120    -7.2080 ca         1 O22      -0.329300
     13 C6           3.6260    -1.2830    -8.3050 ca         1 O22       0.208600
     14 N2           4.2390    -1.2080    -9.5470 nv         1 O22      -0.524200
     15 C4           2.4510    -2.0430    -8.1230 ca         1 O22      -0.164300
     16 C5           1.8620    -2.7490    -9.2200 cg         1 O22       0.235800
     17 N1           1.3890    -3.2930   -10.0990 n1         1 O22      -0.351800
     18 N5           2.4100    -1.4360    -5.8370 nb         1 O22      -0.739000
     19 C3           1.8660    -2.0880    -6.8490 ca         1 O22       0.696600
     20 O1           0.7380    -2.8130    -6.6530 os         1 O22      -0.389100
     21 C2           0.1920    -2.8180    -5.3320 c3         1 O22       0.239400
     22 C1          -1.0710    -3.6820    -5.3060 c3         1 O22      -0.008100
     23 H1           1.0650    -0.0740     1.7290 hn         1 O22       0.268467
     24 H2           2.6650     0.6340     1.1570 hn         1 O22       0.268467
     25 H3           4.2410    -0.0990    -0.6670 ha         1 O22       0.145000
     26 H4           5.1030     0.1590    -2.5230 ha         1 O22       0.142500
     27 H5           0.2250    -0.1900    -2.7680 ha         1 O22       0.145000
     28 H6           1.1750     0.0380    -4.4360 ha         1 O22       0.142500
     29 H7           4.8150     0.5220    -5.1580 hn         1 O22       0.307800
     30 H8           5.0110     0.0440    -7.1350 ha         1 O22       0.129000
     31 H9           5.0940    -1.5850    -9.9060 hn         1 O22       0.281800
     32 H10          3.8010    -0.7030   -10.2920 hn         1 O22       0.281800
     33 H11          0.7470    -3.2210    -4.4930 h1         1 O22      -0.010300
     34 H12          0.0780    -1.7910    -5.0090 h1         1 O22      -0.010300
     35 H13         -1.5090    -3.5980    -4.3190 hc         1 O22       0.011033
     36 H14         -1.9680    -3.5670    -5.9020 hc         1 O22       0.011033
     37 H15         -0.7510    -4.6940    -5.0870 hc         1 O22       0.011033
     38 H43          2.0850    -0.9810     1.1970 hn         1 O22       0.268467
@<TRIPOS>BOND
     1     1     2 2   
     2     2     3 1   
     3     2     4 1   
     4     3    23 1   
     5     3    24 1   
     6     3    38 1   
     7     4     5 ar  
     8     4     7 ar  
     9     5     6 ar  
    10     5    25 1   
    11     6     9 ar  
    12     6    26 1   
    13     7     8 ar  
    14     7    27 1   
    15     8     9 ar  
    16     8    28 1   
    17     9    10 1   
    18    10    11 1   
    19    10    29 1   
    20    11    12 ar  
    21    11    18 ar  
    22    12    13 ar  
    23    12    30 1   
    24    13    14 1   
    25    13    15 ar  
    26    14    31 1   
    27    14    32 1   
    28    15    16 1   
    29    15    19 ar  
    30    16    17 3   
    31    18    19 ar  
    32    19    20 1   
    33    20    21 1   
    34    21    22 1   
    35    21    33 1   
    36    21    34 1   
    37    22    35 1   
    38    22    36 1   
    39    22    37 1   
@<TRIPOS>SUBSTRUCTURE
     1 O22         1 TEMP              0 ****  ****    0 ROOT
