@<TRIPOS>MOLECULE
molecule
   38    39     1     0     0
SMALL
bcc


@<TRIPOS>ATOM
      1 O2           0.0000     0.0000     0.0000 o          1 O22      -0.441100
      2 C15          1.2160     0.0000     0.0000 c          1 O22       0.483700
      3 N4           1.8900     0.0000     1.1680 nz         1 O22      -0.696400
      4 C12          1.9540    -0.0060    -1.2780 ca         1 O22      -0.205600
      5 C11          3.3510    -0.0130    -1.2790 ca         1 O22      -0.090500
      6 C10          4.0370    -0.0250    -2.4720 ca         1 O22      -0.162500
      7 C13          1.2560    -0.0130    -2.4890 ca         1 O22      -0.090500
      8 C14          1.9480    -0.0190    -3.6800 ca         1 O22      -0.162500
      9 C9           3.3390    -0.0300    -3.6770 ca         1 O22       0.276600
     10 N3           4.0350    -0.0420    -4.8830 nu         1 O22      -0.766300
     11 C8           3.5110    -0.7100    -5.9800 ca         1 O22       0.697200
     12 C7           4.1520    -0.6120    -7.2080 ca         1 O22      -0.354300
     13 C6           3.6260    -1.2830    -8.3050 ca         1 O22       0.351600
     14 N2           4.2390    -1.2080    -9.5470 nv         1 O22      -0.975200
     15 C4           2.4510    -2.0430    -8.1230 ca         1 O22      -0.206300
     16 C5           1.8620    -2.7490    -9.2200 cg         1 O22       0.251800
     17 N1           1.3890    -3.2930   -10.0990 n1         1 O22      -0.339800
     18 N5           2.4100    -1.4360    -5.8370 nb         1 O22      -0.855000
     19 C3           1.8660    -2.0880    -6.8490 ca         1 O22       0.736600
     20 O1           0.7380    -2.8130    -6.6530 os         1 O22      -0.397100
     21 C2           0.1920    -2.8180    -5.3320 c3         1 O22       0.164400
     22 C1          -1.0710    -3.6820    -5.3060 c3         1 O22      -0.101100
     23 H1           1.0650    -0.0740     1.7290 hn         1 O22       0.493133
     24 H2           2.6650     0.6340     1.1570 hn         1 O22       0.493133
     25 H3           4.2410    -0.0990    -0.6670 ha         1 O22       0.175000
     26 H4           5.1030     0.1590    -2.5230 ha         1 O22       0.171000
     27 H5           0.2250    -0.1900    -2.7680 ha         1 O22       0.175000
     28 H6           1.1750     0.0380    -4.4360 ha         1 O22       0.171000
     29 H7           4.8150     0.5220    -5.1580 hn         1 O22       0.475800
     30 H8           5.0110     0.0440    -7.1350 ha         1 O22       0.148000
     31 H9           5.0940    -1.5850    -9.9060 hn         1 O22       0.442300
     32 H10          3.8010    -0.7030   -10.2920 hn         1 O22       0.442300
     33 H11          0.7470    -3.2210    -4.4930 h1         1 O22       0.029200
     34 H12          0.0780    -1.7910    -5.0090 h1         1 O22       0.029200
     35 H13         -1.5090    -3.5980    -4.3190 hc         1 O22       0.048033
     36 H14         -1.9680    -3.5670    -5.9020 hc         1 O22       0.048033
     37 H15         -0.7510    -4.6940    -5.0870 hc         1 O22       0.048033
     38 H43          2.0850    -0.9810     1.1970 hn         1 O22       0.493133
@<TRIPOS>BOND
     1    17    16 3
     2    16    15 1
     3    15    19 ar
     4    15    13 ar
     5    20    19 1
     6    20    21 1
     7    22    21 1
     8    14    13 1
     9    19    18 ar
    10    13    12 ar
    11    18    11 ar
    12    12    11 ar
    13    11    10 1
    14    10     9 1
    15     6     9 ar
    16     6     5 ar
    17     9     8 ar
    18     5     4 ar
    19     8     7 ar
    20     4     7 ar
    21     4     2 1
    22     3     2 1
    23     2     1 2
    24     3    23 1
    25     3    24 1
    26     5    25 1
    27     6    26 1
    28     7    27 1
    29     8    28 1
    30    10    29 1
    31    12    30 1
    32    14    31 1
    33    14    32 1
    34    21    33 1
    35    21    34 1
    36    22    35 1
    37    22    36 1
    38    22    37 1
    39    38     3 1
@<TRIPOS>SUBSTRUCTURE
     1 O22         1 TEMP              0 ****  ****    0 ROOT
