@<TRIPOS>MOLECULE
O23
   47    51     1     0     0
SMALL
bcc


@<TRIPOS>ATOM
      1 O            0.0000     0.0000     0.0000 o          1 O23      -0.647100
      2 C            1.2160     0.0000     0.0000 c          1 O23       0.597700
      3 N            1.8900     0.0000     1.1670 ns         1 O23      -0.144900
      4 C1           1.1570    -0.0020     2.4360 cx         1 O23      -0.045300
      5 C3           1.6550    -0.9380     3.5390 cx         1 O23      -0.094900
      6 C2           1.8690     0.5720     3.6630 cx         1 O23      -0.094900
      7 C4           1.9540    -0.0050    -1.2770 ca         1 O23      -0.169600
      8 C9           1.2550    -0.0100    -2.4890 ca         1 O23      -0.045000
      9 C8           1.9370    -0.0140    -3.6710 ca         1 O23      -0.129500
     10 C7           3.3370    -0.0140    -3.6710 ca         1 O23       0.047200
     11 C6           4.0360    -0.0090    -2.4590 ca         1 O23      -0.129500
     12 C5           3.3530     0.0010    -1.2770 ca         1 O23      -0.045000
     13 C10          4.0740    -0.0200    -4.9480 cc         1 O23      -0.371300
     14 N2           5.3660    -0.4280    -5.1450 na         1 O23       0.716700
     15 C13          6.3360    -0.9230    -4.3160 cc         1 O23      -0.528600
     16 C14          7.5480    -1.2450    -4.8140 cd         1 O23       0.499200
     17 N3           7.8280    -1.0890    -6.1110 nd         1 O23      -0.729000
     18 C15          6.9310    -0.6150    -6.9520 cc         1 O23       0.595200
     19 C12          5.6430    -0.2640    -6.4760 cc         1 O23      -0.421600
     20 N1           4.5640     0.2240    -7.0720 nd         1 O23      -0.227600
     21 C11          3.5940     0.3790    -6.1790 cd         1 O23       0.059600
     22 N4           7.2460    -0.4620    -8.2940 nu         1 O23      -0.454900
     23 C16          8.5780    -0.8260    -8.7800 c3         1 O23       0.260100
     24 C17          8.6610    -0.5650   -10.2620 cc         1 O23      -0.029400
     25 S            8.2480    -1.7240   -11.5200 ss         1 O23      -0.261800
     26 C20          8.6500    -0.5540   -12.7700 cc         1 O23       0.019900
     27 C19          9.0510     0.5860   -12.2050 cd         1 O23      -0.132000
     28 C18          9.0520     0.5810   -10.8200 cd         1 O23      -0.101000
     29 H1           2.8910     0.0210     1.1670 hn         1 O23       0.174500
     30 H2           0.0850     0.1520     2.4220 h1         1 O23       0.098700
     31 H3           0.8880    -1.3560     4.1790 hc         1 O23       0.047950
     32 H4           2.5380    -1.5170     3.2970 hc         1 O23       0.047950
     33 H5           2.8830     0.9160     3.4970 hc         1 O23       0.047950
     34 H6           1.2330     1.0770     4.3800 hc         1 O23       0.047950
     35 H7           0.1710    -0.0100    -2.4880 ha         1 O23       0.114500
     36 H8           1.3960    -0.0180    -4.6090 ha         1 O23       0.116000
     37 H9           5.1190    -0.0070    -2.4590 ha         1 O23       0.116000
     38 H10          3.8950     0.0050    -0.3390 ha         1 O23       0.114500
     39 H11          6.1310    -1.0580    -3.2610 h4         1 O23       0.162000
     40 H12          8.3080    -1.6370    -4.1500 h4         1 O23      -0.014900
     41 H13          2.6000     0.7580    -6.3810 h4         1 O23       0.146000
     42 H14          6.5560    -0.1180    -8.9330 hn         1 O23       0.318800
     43 H15          8.7580    -1.8770    -8.5880 h1         1 O23       0.035200
     44 H16          9.3250    -0.2320    -8.2670 h1         1 O23       0.035200
     45 H17          8.5820    -0.7330   -13.8370 h4         1 O23       0.150000
     46 H18          9.3480     1.4510   -12.7850 ha         1 O23       0.123000
     47 H19          9.3550     1.4400   -10.2350 ha         1 O23       0.124000
@<TRIPOS>BOND
     1     1     2 2   
     2     2     3 1   
     3     2     7 1   
     4     3     4 1   
     5     3    29 1   
     6     4     5 1   
     7     4     6 1   
     8     4    30 1   
     9     5     6 1   
    10     5    31 1   
    11     5    32 1   
    12     6    33 1   
    13     6    34 1   
    14     7     8 ar  
    15     7    12 ar  
    16     8     9 ar  
    17     8    35 1   
    18     9    10 ar  
    19     9    36 1   
    20    10    11 ar  
    21    10    13 1   
    22    11    12 ar  
    23    11    37 1   
    24    12    38 1   
    25    13    14 1   
    26    13    21 2   
    27    14    15 1   
    28    14    19 1   
    29    15    16 2   
    30    15    39 1   
    31    16    17 1   
    32    16    40 1   
    33    17    18 2   
    34    18    19 1   
    35    18    22 1   
    36    19    20 2   
    37    20    21 1   
    38    21    41 1   
    39    22    23 1   
    40    22    42 1   
    41    23    24 1   
    42    23    43 1   
    43    23    44 1   
    44    24    25 1   
    45    24    28 2   
    46    25    26 1   
    47    26    27 2   
    48    26    45 1   
    49    27    28 1   
    50    27    46 1   
    51    28    47 1   
@<TRIPOS>SUBSTRUCTURE
     1 O23         1 TEMP              0 ****  ****    0 ROOT
