@<TRIPOS>MOLECULE
molecule
   52    54     1     0     0
SMALL
bcc


@<TRIPOS>ATOM
      1 C1           0.0000     0.0000     0.0000 cc         1 O25      -0.242600
      2 C2          -0.8860     0.0070    -1.2190 c3         1 O25       0.232100
      3 N5          -1.3630     1.3730    -1.4710 n7         1 O25      -0.809200
      4 C10         -2.2320     1.4160    -2.6540 c3         1 O25       0.154800
      5 C13         -2.7080     2.8520    -2.8840 c3         1 O25      -0.093100
      6 C14          1.3530     0.0000     0.0000 cd         1 O25      -0.108300
      7 N16          1.7640     0.0000     1.2850 na         1 O25       0.061400
      8 C17          3.1550    -0.0000     1.7450 c3         1 O25       0.024300
      9 C20          3.3750     1.1640     2.6770 c          1 O25       0.629100
     10 N21          4.5890     1.3660     3.2270 ns         1 O25      -0.454100
     11 C23          4.7920     2.4360     4.0850 cc         1 O25       0.105500
     12 C24          5.9800     2.7300     4.6950 cd         1 O25      -0.350600
     13 C25          7.1970     1.9350     4.5100 c          1 O25       0.540700
     14 N26          7.4580     0.8990     5.3330 nz         1 O25      -0.684400
     15 O29          7.9740     2.2090     3.6140 o          1 O25      -0.398100
     16 C30          5.9160     3.9060     5.5420 cd         1 O25      -0.066300
     17 C31          7.0950     4.4500     6.3340 c3         1 O25      -0.023100
     18 C34          6.7870     5.8900     6.7490 c3         1 O25      -0.079400
     19 C37          5.4070     5.9390     7.4110 c3         1 O25      -0.081400
     20 C40          4.3330     5.7020     6.3460 c3         1 O25      -0.003100
     21 C43          4.7000     4.4630     5.5520 cc         1 O25      -0.079400
     22 S44          3.5970     3.5700     4.5180 ss         1 O25       0.175200
     23 O45          2.4600     1.9180     2.9320 o          1 O25      -0.502100
     24 N46          0.6260    -0.0010     2.1020 nd         1 O25      -0.445800
     25 C47         -0.4310    -0.0010     1.3310 cc         1 O25       0.285600
     26 C48         -1.8640     0.0040     1.7960 c3         1 O25       0.615600
     27 F49         -2.6570     0.6690     0.8540 f          1 O25      -0.204967
     28 F50         -2.3140    -1.3130     1.9370 f          1 O25      -0.204967
     29 F51         -1.9530     0.6620     3.0270 f          1 O25      -0.204967
     30 H2          -0.3240    -0.3430    -2.0760 h1         1 O25       0.045200
     31 H2A         -1.7340    -0.6470    -1.0530 h1         1 O25       0.045200
     32 HN5         -0.5800     1.9800    -1.6100 hn         1 O25       0.350800
     33 H10         -3.0890     0.7730    -2.4970 h1         1 O25       0.033200
     34 H10A        -1.6790     1.0760    -3.5210 h1         1 O25       0.033200
     35 H13         -3.1230     3.2470    -1.9650 hc         1 O25       0.042367
     36 H13A        -3.4690     2.8610    -3.6560 hc         1 O25       0.042367
     37 H13B        -1.8710     3.4650    -3.1960 hc         1 O25       0.042367
     38 H14          1.9900    -0.0920    -0.8720 h4         1 O25       0.179000
     39 H17          3.3630    -0.9260     2.2680 h1         1 O25       0.085200
     40 H17A         3.8170     0.0900     0.8920 h1         1 O25       0.085200
     41 HN21         5.3520     0.7630     2.9900 hn         1 O25       0.315500
     42 HN26         7.5020     0.0530     4.8000 hn         1 O25       0.475467
     43 HN2A         8.3340     1.0500     5.7930 hn         1 O25       0.475467
     44 H31          7.9850     4.4330     5.7170 hc         1 O25       0.045200
     45 H31A         7.2480     3.8430     7.2190 hc         1 O25       0.045200
     46 H34          6.7900     6.5260     5.8720 hc         1 O25       0.061700
     47 H34A         7.5380     6.2310     7.4520 hc         1 O25       0.061700
     48 H37          5.3500     5.1350     8.1350 hc         1 O25       0.061700
     49 H37A         5.2630     6.9320     7.8210 hc         1 O25       0.061700
     50 H40          3.3920     5.5170     6.8480 hc         1 O25       0.074200
     51 H40A         4.3310     6.5490     5.6710 hc         1 O25       0.074200
     52 H263         6.7330     0.8270     6.0190 hn         1 O25       0.475467
@<TRIPOS>BOND
     1     6     1 2
     2     2     1 1
     3     1    25 1
     4     2     3 1
     5     2    30 1
     6     2    31 1
     7     3     4 1
     8     3    32 1
     9     4     5 1
    10     4    33 1
    11     4    34 1
    12     5    35 1
    13     5    36 1
    14     5    37 1
    15     6     7 1
    16     6    38 1
    17     8     7 1
    18     7    24 1
    19     8     9 1
    20     8    39 1
    21     8    40 1
    22    10     9 1
    23     9    23 2
    24    10    11 1
    25    10    41 1
    26    11    12 2
    27    11    22 1
    28    13    12 1
    29    12    16 1
    30    15    13 2
    31    13    14 1
    32    14    42 1
    33    14    43 1
    34    16    17 1
    35    16    21 2
    36    17    18 1
    37    17    44 1
    38    17    45 1
    39    18    19 1
    40    18    46 1
    41    18    47 1
    42    20    19 1
    43    19    48 1
    44    19    49 1
    45    21    20 1
    46    20    50 1
    47    20    51 1
    48    22    21 1
    49    24    25 2
    50    25    26 1
    51    27    26 1
    52    26    28 1
    53    26    29 1
    54    52    14 1
@<TRIPOS>SUBSTRUCTURE
     1 O25         1 TEMP              0 ****  ****    0 ROOT
