@<TRIPOS>MOLECULE
molecule
   58    60     1     0     0
SMALL
bcc


@<TRIPOS>ATOM
      1 C1           0.0000     0.0000     0.0000 cc         1 O26      -0.274600
      2 C2           1.3990     0.0000     0.0000 cc         1 O26       0.392600
      3 C3           2.2830     0.0010    -1.2210 c3         1 O26      -0.077300
      4 C4           2.6370    -1.4400    -1.5950 c3         1 O26      -0.085767
      5 C5           1.5430     0.6630    -2.3850 c3         1 O26      -0.085767
      6 C6           3.5640     0.7800    -0.9220 c3         1 O26      -0.085767
      7 N7           1.8080     0.0000     1.2420 nd         1 O26      -0.500800
      8 N8           0.6810    -0.0010     2.0740 na         1 O26       0.045400
      9 C9           0.6900    -0.0010     3.5390 c3         1 O26       0.029300
     10 C10          1.5080    -1.1650     4.0360 c          1 O26       0.628100
     11 O11          2.0310    -1.9210     3.2440 o          1 O26      -0.503100
     12 N12          1.6580    -1.3680     5.3590 ns         1 O26      -0.455100
     13 C13          2.4110    -2.4390     5.8170 cc         1 O26       0.110500
     14 S14          3.2000    -3.5650     4.8130 ss         1 O26       0.172200
     15 C15          3.8340    -4.4660     6.1800 cc         1 O26      -0.080400
     16 C16          4.7040    -5.7040     6.0760 c3         1 O26      -0.001100
     17 C17          5.3810    -5.9450     7.4280 c3         1 O26      -0.083400
     18 C18          4.3220    -5.9000     8.5330 c3         1 O26      -0.076400
     19 C19          3.8310    -4.4600     8.7000 c3         1 O26      -0.030100
     20 C20          3.4460    -3.9130     7.3350 cd         1 O26      -0.068300
     21 C21          2.6240    -2.7330     7.1340 cd         1 O26      -0.354600
     22 C22          2.0740    -1.9370     8.2360 c          1 O26       0.541700
     23 O23          0.9830    -2.2120     8.6990 o          1 O26      -0.398100
     24 N24          2.7780    -0.9030     8.7360 nz         1 O26      -0.683400
     25 C25         -0.4160    -0.0010     1.2870 cd         1 O26      -0.112300
     26 C26         -0.8860     0.0050    -1.2190 c3         1 O26       0.222100
     27 N27         -0.8640    -1.3220    -1.8470 n7         1 O26      -0.818200
     28 C28         -1.6550    -1.3330    -3.0840 c3         1 O26       0.144100
     29 H4           3.3970    -1.8120    -0.9190 hc         1 O26       0.043367
     30 H4A          3.0120    -1.4680    -2.6110 hc         1 O26       0.043367
     31 H4B          1.7520    -2.0610    -1.5190 hc         1 O26       0.043367
     32 H5           0.8830    -0.0590    -2.8510 hc         1 O26       0.043367
     33 H5A          2.2610     1.0190    -3.1140 hc         1 O26       0.043367
     34 H5B          0.9610     1.4980    -2.0150 hc         1 O26       0.043367
     35 H6           4.0900     0.3080    -0.1000 hc         1 O26       0.043367
     36 H6A          3.3130     1.7980    -0.6510 hc         1 O26       0.043367
     37 H6B          4.1980     0.7850    -1.8000 hc         1 O26       0.043367
     38 H9          -0.3250    -0.0900     3.9070 h1         1 O26       0.079200
     39 H9A          1.1240     0.9240     3.8980 h1         1 O26       0.079200
     40 HN12         1.2100    -0.7560     6.0130 hn         1 O26       0.313500
     41 H16          4.0890    -6.5580     5.8210 hc         1 O26       0.070200
     42 H16A         5.4590    -5.5530     5.3140 hc         1 O26       0.070200
     43 H17          5.8580    -6.9180     7.4240 hc         1 O26       0.057200
     44 H17A         6.1200    -5.1730     7.6040 hc         1 O26       0.057200
     45 H18          3.4820    -6.5100     8.2210 hc         1 O26       0.064700
     46 H18A         4.7880    -6.2090     9.4610 hc         1 O26       0.064700
     47 H19          4.6500    -3.8650     9.0860 hc         1 O26       0.050700
     48 H19A         2.9450    -4.4740     9.3230 hc         1 O26       0.050700
     49 HN24         2.9070    -1.0320     9.7200 hn         1 O26       0.474800
     50 HN2A         2.2780    -0.0500     8.5750 hn         1 O26       0.474800
     51 H25         -1.4450    -0.0010     1.6260 h4         1 O26       0.168000
     52 H26         -1.9000     0.2490    -0.9260 h1         1 O26       0.045200
     53 H26A        -0.5260     0.7440    -1.9240 h1         1 O26       0.045200
     54 HN27        -1.2330    -1.9990    -1.2090 hn         1 O26       0.353800
     55 H28         -1.4930    -2.2680    -3.6080 h1         1 O26       0.034367
     56 H28A        -1.3490    -0.5080    -3.7160 h1         1 O26       0.034367
     57 H28B        -2.7060    -1.2320    -2.8420 h1         1 O26       0.034367
     58 H243         3.6670    -0.8520     8.2790 hn         1 O26       0.474800
@<TRIPOS>BOND
     1    25     1 2
     2    26     1 1
     3     1     2 1
     4     7     2 2
     5     2     3 1
     6     6     3 1
     7     3     5 1
     8     3     4 1
     9     4    29 1
    10     4    30 1
    11     4    31 1
    12     5    32 1
    13     5    33 1
    14     5    34 1
    15     6    35 1
    16     6    36 1
    17     6    37 1
    18     8     7 1
    19     9     8 1
    20    25     8 1
    21     9    10 1
    22     9    38 1
    23     9    39 1
    24    12    10 1
    25    10    11 2
    26    12    13 1
    27    12    40 1
    28    13    21 2
    29    13    14 1
    30    14    15 1
    31    20    15 2
    32    15    16 1
    33    16    17 1
    34    16    41 1
    35    16    42 1
    36    17    18 1
    37    17    43 1
    38    17    44 1
    39    19    18 1
    40    18    45 1
    41    18    46 1
    42    20    19 1
    43    19    47 1
    44    19    48 1
    45    21    20 1
    46    22    21 1
    47    23    22 2
    48    24    22 1
    49    24    49 1
    50    24    50 1
    51    25    51 1
    52    26    27 1
    53    26    52 1
    54    26    53 1
    55    27    28 1
    56    27    54 1
    57    28    55 1
    58    28    56 1
    59    28    57 1
    60    58    24 1
@<TRIPOS>SUBSTRUCTURE
     1 O26         1 TEMP              0 ****  ****    0 ROOT
