@<TRIPOS>MOLECULE
O28
   51    54     1     0     0
SMALL
bcc


@<TRIPOS>ATOM
      1 F1           0.0000     0.0000     0.0000 f          1 O28      -0.199967
      2 C2           1.3990     0.0000     0.0000 c3         1 O28       0.575600
      3 F3           1.8650     0.0000     1.3190 f          1 O28      -0.199967
      4 F4           1.8660    -1.1430    -0.6580 f          1 O28      -0.199967
      5 C5           1.9010     1.2300    -0.7110 cc         1 O28       0.280600
      6 N6           1.1610     2.2100    -1.1690 nd         1 O28      -0.581800
      7 N7           2.0070     3.1590    -1.7620 na         1 O28       0.514400
      8 C8           3.2700     2.7180    -1.6410 cd         1 O28      -0.242600
      9 C9           3.2340     1.5280    -0.9890 cc         1 O28      -0.236600
     10 C10          4.4540     0.7040    -0.6610 c3         1 O28       0.064900
     11 C11          5.6200     1.2070    -1.5220 c3         1 O28      -0.028400
     12 C12          5.7250     2.7290    -1.4030 c3         1 O28      -0.024400
     13 C13          4.5370     3.3850    -2.1150 c3         1 O28       0.065900
     14 C14          1.5880     4.4110    -2.3990 c3         1 O28      -0.064700
     15 C15          1.5600     5.5120    -1.3710 c          1 O28       0.519100
     16 O16          1.8610     5.2770    -0.2200 o          1 O28      -0.527100
     17 N17          1.2010     6.7610    -1.7320 ns         1 O28       0.007900
     18 C18          1.1760     7.7750    -0.7860 cc         1 O28       0.048500
     19 S19          1.5810     7.5790     0.8550 ss         1 O28      -0.035800
     20 C20          1.2750     9.2690     1.2200 cc         1 O28       0.010600
     21 C21          0.8840     9.9280     0.1240 cd         1 O28      -0.072300
     22 C22          0.8280     9.0710    -1.0460 cd         1 O28      -0.368600
     23 C23          0.5420    11.4090     0.1120 c3         1 O28       0.052900
     24 C24          0.3070    11.8720     1.5520 c3         1 O28      -0.025400
     25 C25          1.4830    11.4240     2.4240 c3         1 O28      -0.030400
     26 C26          1.4300     9.9030     2.5900 c3         1 O28       0.073900
     27 C27          0.4330     9.5470    -2.3760 c          1 O28       0.391700
     28 O28         -0.7370     9.5190    -2.7100 o          1 O28      -0.396100
     29 N29          1.3660    10.0170    -3.2270 nz         1 O28       0.189600
     30 H10          4.7000     0.8190     0.3870 hc         1 O28       0.033700
     31 H10A         4.2600    -0.3380    -0.8840 hc         1 O28       0.033700
     32 H11          6.5420     0.7550    -1.1770 hc         1 O28       0.023200
     33 H11A         5.4450     0.9380    -2.5560 hc         1 O28       0.023200
     34 H12          5.6740     2.9900    -0.3530 hc         1 O28       0.027200
     35 H12A         6.6330     3.0440    -1.9040 hc         1 O28       0.027200
     36 H13          4.5010     4.4280    -1.8270 hc         1 O28       0.017200
     37 H13A         4.6370     3.2080    -3.1790 hc         1 O28       0.017200
     38 H14          2.2880     4.6680    -3.1850 h1         1 O28       0.054700
     39 H14A         0.5990     4.2870    -2.8220 h1         1 O28       0.054700
     40 HN17         0.9170     6.9480    -2.6730 hn         1 O28       0.152500
     41 H23          1.3650    11.9670    -0.3180 hc         1 O28       0.012200
     42 H23A        -0.3570    11.5690    -0.4710 hc         1 O28       0.012200
     43 H24         -0.6090    11.4310     1.9270 hc         1 O28       0.032200
     44 H24A         0.2310    12.9520     1.5760 hc         1 O28       0.032200
     45 H25          1.3710    11.8760     3.4020 hc         1 O28       0.031200
     46 H25A         2.4020    11.6770     1.9090 hc         1 O28       0.031200
     47 H26          0.5550     9.6560     3.1790 hc         1 O28       0.042700
     48 H26A         2.3710     9.5730     3.0120 hc         1 O28       0.042700
     49 HN29         1.4070     9.4290    -4.0350 hn         1 O28       0.246800
     50 HN2A         1.1270    10.9480    -3.5040 hn         1 O28       0.246800
     51 H293         2.2590    10.0230    -2.7740 hn         1 O28       0.246800
@<TRIPOS>BOND
     1     1     2 1   
     2     2     3 1   
     3     2     4 1   
     4     2     5 1   
     5     5     6 2   
     6     5     9 1   
     7     6     7 1   
     8     7     8 1   
     9     7    14 1   
    10     8     9 2   
    11     8    13 1   
    12     9    10 1   
    13    10    11 1   
    14    10    30 1   
    15    10    31 1   
    16    11    12 1   
    17    11    32 1   
    18    11    33 1   
    19    12    13 1   
    20    12    34 1   
    21    12    35 1   
    22    13    36 1   
    23    13    37 1   
    24    14    15 1   
    25    14    38 1   
    26    14    39 1   
    27    15    16 2   
    28    15    17 1   
    29    17    18 1   
    30    17    40 1   
    31    18    19 1   
    32    18    22 2   
    33    19    20 1   
    34    20    21 2   
    35    20    26 1   
    36    21    22 1   
    37    21    23 1   
    38    22    27 1   
    39    23    24 1   
    40    23    41 1   
    41    23    42 1   
    42    24    25 1   
    43    24    43 1   
    44    24    44 1   
    45    25    26 1   
    46    25    45 1   
    47    25    46 1   
    48    26    47 1   
    49    26    48 1   
    50    27    28 2   
    51    27    29 1   
    52    29    49 1   
    53    29    50 1   
    54    29    51 1   
@<TRIPOS>SUBSTRUCTURE
     1 O28         1 TEMP              0 ****  ****    0 ROOT
