@<TRIPOS>MOLECULE
molecule
   51    54     1     0     0
SMALL
bcc


@<TRIPOS>ATOM
      1 F1           0.0000     0.0000     0.0000 f          1 O28      -0.208967
      2 C2           1.3990     0.0000     0.0000 c3         1 O28       0.617600
      3 F3           1.8650     0.0000     1.3190 f          1 O28      -0.208967
      4 F4           1.8660    -1.1430    -0.6580 f          1 O28      -0.208967
      5 C5           1.9010     1.2300    -0.7110 cc         1 O28       0.276600
      6 N6           1.1610     2.2100    -1.1690 nd         1 O28      -0.451800
      7 N7           2.0070     3.1590    -1.7620 na         1 O28       0.075400
      8 C8           3.2700     2.7180    -1.6410 cd         1 O28      -0.065600
      9 C9           3.2340     1.5280    -0.9890 cc         1 O28      -0.242600
     10 C10          4.4540     0.7040    -0.6610 c3         1 O28      -0.007100
     11 C11          5.6200     1.2070    -1.5220 c3         1 O28      -0.083400
     12 C12          5.7250     2.7290    -1.4030 c3         1 O28      -0.077400
     13 C13          4.5370     3.3850    -2.1150 c3         1 O28      -0.019100
     14 C14          1.5880     4.4110    -2.3990 c3         1 O28       0.021300
     15 C15          1.5600     5.5120    -1.3710 c          1 O28       0.625100
     16 O16          1.8610     5.2770    -0.2200 o          1 O28      -0.518100
     17 N17          1.2010     6.7610    -1.7320 ns         1 O28      -0.453100
     18 C18          1.1760     7.7750    -0.7860 cc         1 O28       0.104500
     19 S19          1.5810     7.5790     0.8550 ss         1 O28       0.170200
     20 C20          1.2750     9.2690     1.2200 cc         1 O28      -0.079400
     21 C21          0.8840     9.9280     0.1240 cd         1 O28      -0.065300
     22 C22          0.8280     9.0710    -1.0460 cd         1 O28      -0.349600
     23 C23          0.5420    11.4090     0.1120 c3         1 O28      -0.023100
     24 C24          0.3070    11.8720     1.5520 c3         1 O28      -0.079400
     25 C25          1.4830    11.4240     2.4240 c3         1 O28      -0.081400
     26 C26          1.4300     9.9030     2.5900 c3         1 O28      -0.003100
     27 C27          0.4330     9.5470    -2.3760 c          1 O28       0.538700
     28 O28         -0.7370     9.5190    -2.7100 o          1 O28      -0.393100
     29 N29          1.3660    10.0170    -3.2270 nz         1 O28      -0.683400
     30 H10          4.7000     0.8190     0.3870 hc         1 O28       0.066200
     31 H10A         4.2600    -0.3380    -0.8840 hc         1 O28       0.066200
     32 H11          6.5420     0.7550    -1.1770 hc         1 O28       0.053200
     33 H11A         5.4450     0.9380    -2.5560 hc         1 O28       0.053200
     34 H12          5.6740     2.9900    -0.3530 hc         1 O28       0.057700
     35 H12A         6.6330     3.0440    -1.9040 hc         1 O28       0.057700
     36 H13          4.5010     4.4280    -1.8270 hc         1 O28       0.052700
     37 H13A         4.6370     3.2080    -3.1790 hc         1 O28       0.052700
     38 H14          2.2880     4.6680    -3.1850 h1         1 O28       0.092700
     39 H14A         0.5990     4.2870    -2.8220 h1         1 O28       0.092700
     40 HN17         0.9170     6.9480    -2.6730 hn         1 O28       0.316500
     41 H23          1.3650    11.9670    -0.3180 hc         1 O28       0.046200
     42 H23A        -0.3570    11.5690    -0.4710 hc         1 O28       0.046200
     43 H24         -0.6090    11.4310     1.9270 hc         1 O28       0.062200
     44 H24A         0.2310    12.9520     1.5760 hc         1 O28       0.062200
     45 H25          1.3710    11.8760     3.4020 hc         1 O28       0.061200
     46 H25A         2.4020    11.6770     1.9090 hc         1 O28       0.061200
     47 H26          0.5550     9.6560     3.1790 hc         1 O28       0.074200
     48 H26A         2.3710     9.5730     3.0120 hc         1 O28       0.074200
     49 HN29         1.4070     9.4290    -4.0350 hn         1 O28       0.474467
     50 HN2A         1.1270    10.9480    -3.5040 hn         1 O28       0.474467
     51 H293         2.2590    10.0230    -2.7740 hn         1 O28       0.474467
@<TRIPOS>BOND
     1     2     1 1
     2     5     2 1
     3     3     2 1
     4     2     4 1
     5     9     5 1
     6     6     5 2
     7     7     6 1
     8    14     7 1
     9     8     7 1
    10    13     8 1
    11     8     9 2
    12     9    10 1
    13    11    10 1
    14    10    30 1
    15    10    31 1
    16    12    11 1
    17    11    32 1
    18    11    33 1
    19    13    12 1
    20    12    34 1
    21    12    35 1
    22    13    36 1
    23    13    37 1
    24    14    15 1
    25    14    38 1
    26    14    39 1
    27    15    17 1
    28    15    16 2
    29    17    18 1
    30    17    40 1
    31    18    22 2
    32    18    19 1
    33    19    20 1
    34    21    20 2
    35    20    26 1
    36    22    21 1
    37    21    23 1
    38    27    22 1
    39    23    24 1
    40    23    41 1
    41    23    42 1
    42    24    25 1
    43    24    43 1
    44    24    44 1
    45    26    25 1
    46    25    45 1
    47    25    46 1
    48    26    47 1
    49    26    48 1
    50    28    27 2
    51    27    29 1
    52    29    49 1
    53    29    50 1
    54    51    29 1
@<TRIPOS>SUBSTRUCTURE
     1 O28         1 TEMP              0 ****  ****    0 ROOT
