@<TRIPOS>MOLECULE
molecule
   64    67     1     0     0
SMALL
bcc


@<TRIPOS>ATOM
      1 O1           0.0000     0.0000     0.0000 o          1 O29      -0.596100
      2 C2           1.2180     0.0000     0.0000 c          1 O29       0.686700
      3 N3           1.8910     0.0000     1.1670 ns         1 O29      -0.587900
      4 C4           1.9500    -0.0060    -1.2710 cc         1 O29      -0.236600
      5 C5           2.3430    -1.2220    -1.9590 cc         1 O29      -0.061300
      6 C6           2.0460    -2.6240    -1.4480 c3         1 O29      -0.017100
      7 C7           3.0010    -0.9740    -3.0970 cd         1 O29      -0.095400
      8 C8           3.5340    -2.0470    -4.0270 c3         1 O29       0.005900
      9 C9           3.5740    -3.3780    -3.2720 c3         1 O29      -0.082400
     10 C10          2.2170    -3.6140    -2.6020 c3         1 O29      -0.082400
     11 S11          3.1580     0.7540    -3.3620 ss         1 O29       0.035200
     12 C12          2.3250     1.1330    -1.9270 cd         1 O29       0.084500
     13 N13          2.0650     2.4200    -1.4820 ns         1 O29      -0.431100
     14 C14          2.4790     3.4790    -2.2050 c          1 O29       0.623100
     15 O15          3.0790     3.3070    -3.2460 o          1 O29      -0.554100
     16 C16          2.1970     4.8790    -1.7220 c3         1 O29       0.009300
     17 N17          2.7450     5.8450    -2.6770 na         1 O29       0.092400
     18 N18          2.0710     6.3870    -3.7830 nc         1 O29      -0.449800
     19 C19          2.8840     7.2120    -4.3950 cd         1 O29       0.264600
     20 C20          2.5680     8.0130    -5.6320 c3         1 O29       0.616600
     21 F21          2.8070     9.3690    -5.3840 f          1 O29      -0.214967
     22 F22          3.3790     7.5810    -6.6870 f          1 O29      -0.214967
     23 F23          1.2230     7.8310    -5.9730 f          1 O29      -0.214967
     24 C24          3.9790     6.3740    -2.6480 cc         1 O29      -0.053600
     25 C25          4.0940     7.2200    -3.7030 cd         1 O29      -0.262600
     26 C26          5.3360     8.0160    -4.0180 c3         1 O29      -0.003100
     27 C27          5.0810     6.1080    -1.6530 c3         1 O29      -0.013100
     28 C28          6.4030     6.6000    -2.2520 c3         1 O29      -0.075400
     29 C29          6.2290     8.0310    -2.7700 c3         1 O29      -0.084400
     30 C30          1.1590    -0.0000     2.4350 c3         1 O29       0.108000
     31 C31          2.1540     0.0000     3.5980 c3         1 O29       0.144800
     32 N32          1.4200     0.0010     4.8710 n3         1 O29      -0.727600
     33 C33          2.3260    -0.2380     6.0020 c3         1 O29       0.150100
     34 C34          0.6740     1.2530     5.0480 c3         1 O29       0.150100
     35 HN3          2.8920    -0.0270     1.1670 hn         1 O29       0.315500
     36 H6           1.0130    -2.6550    -1.1240 hc         1 O29       0.060700
     37 H6A          2.7720    -2.8670    -0.6820 hc         1 O29       0.060700
     38 H8           2.8810    -2.1380    -4.8870 hc         1 O29       0.053200
     39 H8A          4.5340    -1.7830    -4.3500 hc         1 O29       0.053200
     40 H9           3.7780    -4.1820    -3.9690 hc         1 O29       0.044700
     41 H9A          4.3490    -3.3410    -2.5160 hc         1 O29       0.044700
     42 H10          2.2130    -4.6160    -2.1910 hc         1 O29       0.051700
     43 H10A         1.4410    -3.4190    -3.3330 hc         1 O29       0.051700
     44 HN13         1.5620     2.5630    -0.6290 hn         1 O29       0.338500
     45 H16          2.6590     5.0270    -0.7540 h1         1 O29       0.090700
     46 H16A         1.1260     5.0230    -1.6380 h1         1 O29       0.090700
     47 H26          5.8700     7.5130    -4.8140 hc         1 O29       0.062700
     48 H26A         5.0410     9.0350    -4.2370 hc         1 O29       0.062700
     49 H27          5.1440     5.0450    -1.4560 hc         1 O29       0.054200
     50 H27A         4.8770     6.6430    -0.7330 hc         1 O29       0.054200
     51 H28          6.6890     5.9520    -3.0720 hc         1 O29       0.051700
     52 H28A         7.1720     6.5850    -1.4890 hc         1 O29       0.051700
     53 H29          5.7660     8.6380    -2.0020 hc         1 O29       0.046700
     54 H29A         7.1980     8.4410    -3.0270 hc         1 O29       0.046700
     55 H30          0.5370    -0.8850     2.4930 h1         1 O29       0.061200
     56 H30A         0.5360     0.8840     2.4920 h1         1 O29       0.061200
     57 H31          2.7770     0.8850     3.5400 h1         1 O29       0.034700
     58 H31A         2.7770    -0.8840     3.5410 h1         1 O29       0.034700
     59 H33          2.8460    -1.1770     5.8560 h1         1 O29       0.034533
     60 H33A         3.0480     0.5680     6.0620 h1         1 O29       0.034533
     61 H33B         1.7540    -0.2800     6.9200 h1         1 O29       0.034533
     62 H34          0.5730     1.4660     6.1060 h1         1 O29       0.034533
     63 H34A        -0.3080     1.1550     4.6040 h1         1 O29       0.034533
     64 H34B         1.2090     2.0630     4.5670 h1         1 O29       0.034533
@<TRIPOS>BOND
     1     1     2 2
     2     3     2 1
     3     2     4 1
     4    30     3 1
     5     3    35 1
     6     4    12 2
     7     4     5 1
     8     5     6 1
     9     5     7 2
    10     6    10 1
    11     6    36 1
    12     6    37 1
    13    11     7 1
    14     7     8 1
    15     9     8 1
    16     8    38 1
    17     8    39 1
    18     9    10 1
    19     9    40 1
    20     9    41 1
    21    10    42 1
    22    10    43 1
    23    12    11 1
    24    13    12 1
    25    13    14 1
    26    13    44 1
    27    16    14 1
    28    14    15 2
    29    16    17 1
    30    16    45 1
    31    16    46 1
    32    24    17 1
    33    17    18 1
    34    18    19 2
    35    25    19 1
    36    19    20 1
    37    21    20 1
    38    20    23 1
    39    20    22 1
    40    27    24 1
    41    24    25 2
    42    25    26 1
    43    29    26 1
    44    26    47 1
    45    26    48 1
    46    27    28 1
    47    27    49 1
    48    27    50 1
    49    28    29 1
    50    28    51 1
    51    28    52 1
    52    29    53 1
    53    29    54 1
    54    30    31 1
    55    30    55 1
    56    30    56 1
    57    32    31 1
    58    31    57 1
    59    31    58 1
    60    34    32 1
    61    32    33 1
    62    33    59 1
    63    33    60 1
    64    33    61 1
    65    34    62 1
    66    34    63 1
    67    34    64 1
@<TRIPOS>SUBSTRUCTURE
     1 O29         1 TEMP              0 ****  ****    0 ROOT
