@<TRIPOS>MOLECULE
molecule
   77    81     1     0     0
SMALL
bcc


@<TRIPOS>ATOM
      1 C1           0.0000     0.0000     0.0000 ca         1 O2N      -0.161000
      2 C2           1.3830     0.0000     0.0000 ca         1 O2N      -0.120000
      3 C3          -0.6920     0.0000     1.1940 ca         1 O2N      -0.117000
      4 C4           2.0820     0.0000     1.1940 ca         1 O2N      -0.135000
      5 C5           5.2030    -1.9390     5.3810 ca         1 O2N      -0.138000
      6 C6          -4.7060     1.4470     5.7110 ca         1 O2N      -0.075500
      7 C7          -4.8910     0.3100     3.6110 ca         1 O2N      -0.075500
      8 C8          -2.8020    -1.6890     6.8050 ca         1 O2N      -0.075500
      9 C9          -3.2270    -2.4330     4.5680 ca         1 O2N      -0.075500
     10 C10          6.5390    -1.5790     5.3180 ca         1 O2N      -0.146000
     11 C11         -5.9580     1.9990     5.5250 ca         1 O2N      -0.189250
     12 C12         -6.1440     0.8590     3.4200 ca         1 O2N      -0.189250
     13 C13         -2.9320    -2.9840     7.2640 ca         1 O2N      -0.189250
     14 C14         -3.3580    -3.7310     5.0210 ca         1 O2N      -0.189250
     15 C15          0.0060     0.0010     2.4020 ca         1 O2N      -0.126600
     16 C16          4.5870     0.3740     5.6060 ca         1 O2N      -0.056600
     17 C17         -4.1730     0.6040     4.7550 ca         1 O2N      -0.116800
     18 C18         -2.9480    -1.4120     5.4580 ca         1 O2N      -0.116800
     19 C19          1.4010     0.0000     2.3940 ca         1 O2N       0.020700
     20 C20          4.2280    -0.9760     5.5230 ca         1 O2N      -0.114300
     21 C21          6.9100    -0.2480     5.3980 ca         1 O2N       0.022100
     22 C22          5.9370     0.7380     5.5430 ca         1 O2N       0.066100
     23 C23         -6.6820     1.7070     4.3790 ca         1 O2N       0.133100
     24 C24         -3.2110    -4.0100     6.3730 ca         1 O2N       0.133100
     25 C26          2.6790    -3.6960     3.7430 c2         1 O2N      -0.131200
     26 C27         -0.7290     0.0010     3.6850 c          1 O2N       0.671700
     27 C29          7.8740     1.7400     5.0750 c3         1 O2N       0.327200
     28 C32          2.1640    -0.0010     3.6950 c3         1 O2N       0.179100
     29 C33          2.7770    -1.3760     5.5910 c3         1 O2N       0.216100
     30 C34          2.9420    -2.2670     3.3450 c3         1 O2N       0.164000
     31 C35         -2.8060     0.0020     4.9600 c3         1 O2N       0.220300
     32 N36         -2.0780     0.0020     3.6890 ns         1 O2N      -0.596900
     33 N37          2.2030    -1.3650     4.2390 n3         1 O2N      -0.701600
     34 O38          3.1230     2.1000     4.6830 o          1 O2N      -0.822800
     35 O39         -0.1190     0.0010     4.7350 o          1 O2N      -0.545100
     36 O40          3.0740     1.6360     6.8540 o          1 O2N      -0.822800
     37 O41          8.1360     0.3530     5.3620 os         1 O2N      -0.349900
     38 O42          6.5490     1.9520     5.5970 os         1 O2N      -0.299900
     39 O43         -7.9150     2.2480     4.1940 os         1 O2N      -0.333900
     40 O44         -3.3390    -5.2860     6.8210 os         1 O2N      -0.333900
     41 H1          -0.5410    -0.0000    -0.9390 ha         1 O2N       0.113000
     42 H2           1.9220    -0.0000    -0.9400 ha         1 O2N       0.116000
     43 H3          -1.7760     0.0000     1.1930 ha         1 O2N       0.108000
     44 H4           3.1650    -0.0000     1.1860 ha         1 O2N       0.140000
     45 H5           4.9230    -2.9830     5.3170 ha         1 O2N       0.122000
     46 H10          7.2980    -2.3440     5.2060 ha         1 O2N       0.117000
     47 H6          -4.1410     1.6760     6.6070 ha         1 O2N       0.134500
     48 H11         -6.3760     2.6610     6.2750 ha         1 O2N       0.133750
     49 H7          -4.4710    -0.3520     2.8630 ha         1 O2N       0.134500
     50 H12         -6.7070     0.6290     2.5240 ha         1 O2N       0.133750
     51 H8          -2.5840    -0.8870     7.5010 ha         1 O2N       0.134500
     52 H13         -2.8170    -3.1990     8.3190 ha         1 O2N       0.133750
     53 H9          -3.3410    -2.2140     3.5130 ha         1 O2N       0.134500
     54 H14         -3.5760    -4.5300     4.3230 ha         1 O2N       0.133750
     55 H35         -2.2600     0.5890     5.6890 h1         1 O2N       0.098700
     56 H321         3.1740     0.3480     3.5210 h1         1 O2N       0.113700
     57 H322         1.6720     0.6560     4.4020 h1         1 O2N       0.113700
     58 H331         2.2380    -0.6760     6.2180 h1         1 O2N       0.072700
     59 H332         2.6960    -2.3720     6.0090 h1         1 O2N       0.072700
     60 H251         2.0200    -5.5730     3.1500 ha         1 O2N       0.100500
     61 H252         2.0100    -4.2200     1.8500 ha         1 O2N       0.100500
     62 H26          2.8780    -4.0220     4.7570 ha         1 O2N       0.119000
     63 H341         2.6150    -2.1100     2.3240 h1         1 O2N       0.042700
     64 H342         4.0030    -2.0600     3.4200 h1         1 O2N       0.042700
     65 H36         -2.5800     0.0560     2.8250 hn         1 O2N       0.305500
     66 H291         7.8930     1.9160     4.0060 h2         1 O2N       0.052200
     67 H292         8.5890     2.3740     5.5850 h2         1 O2N       0.052200
     68 H301        -8.0130     2.2170     2.1360 h1         1 O2N       0.037367
     69 H302        -8.7460     0.8290     2.9510 h1         1 O2N       0.037367
     70 H303        -9.5640     2.3970     2.9670 h1         1 O2N       0.037367
     71 H311        -3.7030    -7.2560     6.3350 h1         1 O2N       0.037367
     72 H312        -4.5640    -6.0600     5.3550 h1         1 O2N       0.037367
     73 H313        -2.8310    -6.3210     5.1130 h1         1 O2N       0.037367
     74 C25          2.2100    -4.5450     2.8640 c2         1 O2N      -0.255000
     75 C28          3.5470     1.4080     5.7580 c          1 O2N       0.886200
     76 C30         -8.6010     1.9020     2.9890 c3         1 O2N       0.131200
     77 C31         -3.6270    -6.2920     5.8470 c3         1 O2N       0.131200
@<TRIPOS>BOND
     1     1     2 ar
     2     1     3 ar
     3     2     4 ar
     4     3    15 ar
     5     4    19 ar
     6     5    10 ar
     7     5    20 ar
     8     6    11 ar
     9     6    17 ar
    10     7    12 ar
    11     7    17 ar
    12     8    13 ar
    13     8    18 ar
    14     9    14 ar
    15     9    18 ar
    16    10    21 ar
    17    11    23 ar
    18    12    23 ar
    19    13    24 ar
    20    14    24 ar
    21    15    19 ar
    22    15    26 1
    23    16    20 ar
    24    16    22 ar
    25    16    75 1
    26    17    31 1
    27    18    31 1
    28    19    28 1
    29    20    29 1
    30    21    22 ar
    31    21    37 1
    32    22    38 1
    33    23    39 1
    34    24    40 1
    35    74    25 2
    36    25    30 1
    37    26    32 1
    38    26    35 2
    39    75    34 1
    40    75    36 1
    41    27    37 1
    42    27    38 1
    43    76    39 1
    44    77    40 1
    45    28    33 1
    46    29    33 1
    47    30    33 1
    48    31    32 1
    49     1    41 1
    50     2    42 1
    51     3    43 1
    52     4    44 1
    53     5    45 1
    54    10    46 1
    55     6    47 1
    56    11    48 1
    57     7    49 1
    58    12    50 1
    59     8    51 1
    60    13    52 1
    61     9    53 1
    62    14    54 1
    63    31    55 1
    64    28    56 1
    65    28    57 1
    66    29    58 1
    67    29    59 1
    68    74    60 1
    69    74    61 1
    70    25    62 1
    71    30    63 1
    72    30    64 1
    73    32    65 1
    74    27    66 1
    75    27    67 1
    76    76    68 1
    77    76    69 1
    78    76    70 1
    79    77    71 1
    80    77    72 1
    81    77    73 1
@<TRIPOS>SUBSTRUCTURE
     1 O2N         1 TEMP              0 ****  ****    0 ROOT
