@<TRIPOS>MOLECULE
O2N
   77    81     1     0     0
SMALL
bcc


@<TRIPOS>ATOM
      1 C1           0.0000     0.0000     0.0000 ca         1 O2N      -0.141000
      2 C2           1.3830     0.0000     0.0000 ca         1 O2N      -0.093000
      3 C3          -0.6920     0.0000     1.1940 ca         1 O2N      -0.098000
      4 C4           2.0820     0.0000     1.1940 ca         1 O2N      -0.114000
      5 C5           5.2030    -1.9390     5.3810 ca         1 O2N      -0.123000
      6 C6          -4.7060     1.4470     5.7110 ca         1 O2N      -0.045250
      7 C7          -4.8910     0.3100     3.6110 ca         1 O2N      -0.045250
      8 C8          -2.8020    -1.6890     6.8050 ca         1 O2N      -0.045250
      9 C9          -3.2270    -2.4330     4.5680 ca         1 O2N      -0.045250
     10 C10          6.5390    -1.5790     5.3180 ca         1 O2N      -0.124000
     11 C11         -5.9580     1.9990     5.5250 ca         1 O2N      -0.176250
     12 C12         -6.1440     0.8590     3.4200 ca         1 O2N      -0.176250
     13 C13         -2.9320    -2.9840     7.2640 ca         1 O2N      -0.176250
     14 C14         -3.3580    -3.7310     5.0210 ca         1 O2N      -0.176250
     15 C15          0.0060     0.0010     2.4020 ca         1 O2N      -0.138600
     16 C16          4.5870     0.3740     5.6060 ca         1 O2N      -0.051600
     17 C17         -4.1730     0.6040     4.7550 ca         1 O2N      -0.128800
     18 C18         -2.9480    -1.4120     5.4580 ca         1 O2N      -0.128800
     19 C19          1.4010     0.0000     2.3940 ca         1 O2N       0.039700
     20 C20          4.2280    -0.9760     5.5230 ca         1 O2N      -0.110300
     21 C21          6.9100    -0.2480     5.3980 ca         1 O2N       0.023100
     22 C22          5.9370     0.7380     5.5430 ca         1 O2N       0.080100
     23 C23         -6.6820     1.7070     4.3790 ca         1 O2N       0.142100
     24 C24         -3.2110    -4.0100     6.3730 ca         1 O2N       0.142100
     25 C26          2.6790    -3.6960     3.7430 c2         1 O2N      -0.111200
     26 C27         -0.7290     0.0010     3.6850 c          1 O2N       0.597700
     27 C29          7.8740     1.7400     5.0750 c3         1 O2N       0.421200
     28 C32          2.1640    -0.0010     3.6950 c3         1 O2N       0.104100
     29 C33          2.7770    -1.3760     5.5910 c3         1 O2N       0.198100
     30 C34          2.9420    -2.2670     3.3450 c3         1 O2N       0.135000
     31 C35         -2.8060     0.0020     4.9600 c3         1 O2N       0.150300
     32 N36         -2.0780     0.0020     3.6890 ns         1 O2N      -0.236900
     33 N37          2.2030    -1.3650     4.2390 n3         1 O2N      -0.506600
     34 O38          3.1230     2.1000     4.6830 o          1 O2N      -0.870300
     35 O39         -0.1190     0.0010     4.7350 o          1 O2N      -0.581100
     36 O40          3.0740     1.6360     6.8540 o          1 O2N      -0.870300
     37 O41          8.1360     0.3530     5.3620 os         1 O2N      -0.334900
     38 O42          6.5490     1.9520     5.5970 os         1 O2N      -0.285900
     39 O43         -7.9150     2.2480     4.1940 os         1 O2N      -0.311400
     40 O44         -3.3390    -5.2860     6.8210 os         1 O2N      -0.311400
     41 H1          -0.5410    -0.0000    -0.9390 ha         1 O2N       0.090000
     42 H2           1.9220    -0.0000    -0.9400 ha         1 O2N       0.089000
     43 H3          -1.7760     0.0000     1.1930 ha         1 O2N       0.088000
     44 H4           3.1650    -0.0000     1.1860 ha         1 O2N       0.114000
     45 H5           4.9230    -2.9830     5.3170 ha         1 O2N       0.102000
     46 H10          7.2980    -2.3440     5.2060 ha         1 O2N       0.093000
     47 H6          -4.1410     1.6760     6.6070 ha         1 O2N       0.107500
     48 H11         -6.3760     2.6610     6.2750 ha         1 O2N       0.113500
     49 H7          -4.4710    -0.3520     2.8630 ha         1 O2N       0.107500
     50 H12         -6.7070     0.6290     2.5240 ha         1 O2N       0.113500
     51 H8          -2.5840    -0.8870     7.5010 ha         1 O2N       0.107500
     52 H13         -2.8170    -3.1990     8.3190 ha         1 O2N       0.113500
     53 H9          -3.3410    -2.2140     3.5130 ha         1 O2N       0.107500
     54 H14         -3.5760    -4.5300     4.3230 ha         1 O2N       0.113500
     55 H35         -2.2600     0.5890     5.6890 h1         1 O2N       0.070700
     56 H321         1.6720     0.6560     4.4020 h1         1 O2N       0.104700
     57 H322         3.1740     0.3480     3.5210 h1         1 O2N       0.104700
     58 H331         2.2380    -0.6760     6.2180 h1         1 O2N       0.042700
     59 H332         2.6960    -2.3720     6.0090 h1         1 O2N       0.042700
     60 H251         2.0100    -4.2200     1.8500 ha         1 O2N       0.076500
     61 H252         2.0200    -5.5730     3.1500 ha         1 O2N       0.076500
     62 H26          2.8780    -4.0220     4.7570 ha         1 O2N       0.099000
     63 H341         2.6150    -2.1100     2.3240 h1         1 O2N       0.024700
     64 H342         4.0030    -2.0600     3.4200 h1         1 O2N       0.024700
     65 H36         -2.5800     0.0560     2.8250 hn         1 O2N       0.179500
     66 H291         8.5890     2.3740     5.5850 h2         1 O2N      -0.001300
     67 H292         7.8930     1.9160     4.0060 h2         1 O2N      -0.001300
     68 H301        -8.0130     2.2170     2.1360 h1         1 O2N      -0.005800
     69 H302        -9.5640     2.3970     2.9670 h1         1 O2N      -0.005800
     70 H303        -8.7460     0.8290     2.9510 h1         1 O2N      -0.005800
     71 H311        -2.8310    -6.3210     5.1130 h1         1 O2N      -0.005800
     72 H312        -3.7030    -7.2560     6.3350 h1         1 O2N      -0.005800
     73 H313        -4.5640    -6.0600     5.3550 h1         1 O2N      -0.005800
     74 C25          2.2100    -4.5450     2.8640 c2         1 O2N      -0.211000
     75 C28          3.5470     1.4080     5.7580 c          1 O2N       0.979200
     76 C30         -8.6010     1.9020     2.9890 c3         1 O2N       0.244200
     77 C31         -3.6270    -6.2920     5.8470 c3         1 O2N       0.244200
@<TRIPOS>BOND
     1     1     2 ar  
     2     1     3 ar  
     3     1    41 1   
     4     2     4 ar  
     5     2    42 1   
     6     3    15 ar  
     7     3    43 1   
     8     4    19 ar  
     9     4    44 1   
    10     5    10 ar  
    11     5    20 ar  
    12     5    45 1   
    13     6    11 ar  
    14     6    17 ar  
    15     6    47 1   
    16     7    12 ar  
    17     7    17 ar  
    18     7    49 1   
    19     8    13 ar  
    20     8    18 ar  
    21     8    51 1   
    22     9    14 ar  
    23     9    18 ar  
    24     9    53 1   
    25    10    21 ar  
    26    10    46 1   
    27    11    23 ar  
    28    11    48 1   
    29    12    23 ar  
    30    12    50 1   
    31    13    24 ar  
    32    13    52 1   
    33    14    24 ar  
    34    14    54 1   
    35    15    19 ar  
    36    15    26 1   
    37    16    20 ar  
    38    16    22 ar  
    39    16    75 1   
    40    17    31 1   
    41    18    31 1   
    42    19    28 1   
    43    20    29 1   
    44    21    22 ar  
    45    21    37 1   
    46    22    38 1   
    47    23    39 1   
    48    24    40 1   
    49    25    30 1   
    50    25    62 1   
    51    25    74 2   
    52    26    32 1   
    53    26    35 2   
    54    27    37 1   
    55    27    38 1   
    56    27    66 1   
    57    27    67 1   
    58    28    33 1   
    59    28    56 1   
    60    28    57 1   
    61    29    33 1   
    62    29    58 1   
    63    29    59 1   
    64    30    33 1   
    65    30    63 1   
    66    30    64 1   
    67    31    32 1   
    68    31    55 1   
    69    32    65 1   
    70    34    75 1   
    71    36    75 1   
    72    39    76 1   
    73    40    77 1   
    74    60    74 1   
    75    61    74 1   
    76    68    76 1   
    77    69    76 1   
    78    70    76 1   
    79    71    77 1   
    80    72    77 1   
    81    73    77 1   
@<TRIPOS>SUBSTRUCTURE
     1 O2N         1 TEMP              0 ****  ****    0 ROOT
