@<TRIPOS>MOLECULE
molecule
   26    25     1     0     0
SMALL
bcc


@<TRIPOS>ATOM
      1 O01          0.0000     0.0000     0.0000 o          1 O2S      -0.846800
      2 C02          1.3430     0.0000     0.0000 c          1 O2S       0.902600
      3 O03          1.9460    -0.0000    -1.0470 o          1 O2S      -0.846800
      4 C04          2.0960     0.0000     1.3040 c3         1 O2S      -0.160700
      5 C05          2.4960    -1.4330     1.6630 c3         1 O2S      -0.050400
      6 C06          1.2380    -2.2650     1.9220 c3         1 O2S      -0.074700
      7 C07          1.6310    -3.7240     2.1560 c3         1 O2S      -0.086100
      8 C08          0.5160    -1.7250     3.1580 c3         1 O2S      -0.086100
      9 C09          3.3530     0.8610     1.1680 c3         1 O2S       0.081400
     10 S10          2.8800     2.5580     0.7340 sh         1 O2S      -0.415900
     11 C11          4.1140     0.8680     2.4950 c3         1 O2S      -0.093100
     12 H2           1.4650     0.4050     2.0860 hc         1 O2S       0.057700
     13 H3           3.0540    -1.8680     0.8420 hc         1 O2S       0.024200
     14 H4           3.1130    -1.4240     2.5530 hc         1 O2S       0.024200
     15 H5           0.5810    -2.2010     1.0630 hc         1 O2S       0.101700
     16 H6           2.1700    -4.0960     1.2940 hc         1 O2S       0.022533
     17 H7           2.2630    -3.7920     3.0340 hc         1 O2S       0.022533
     18 H8           0.7380    -4.3190     2.3080 hc         1 O2S       0.022533
     19 H9          -0.1370    -2.4910     3.5570 hc         1 O2S       0.022533
     20 H10         -0.0720    -0.8570     2.8830 hc         1 O2S       0.022533
     21 H11          1.2450    -1.4450     3.9080 hc         1 O2S       0.022533
     22 H12          3.9870     0.4540     0.3900 h1         1 O2S       0.072700
     23 H13          3.8620     3.1300     0.0480 hs         1 O2S       0.179800
     24 H14          3.4070     0.8700     3.3160 hc         1 O2S       0.026700
     25 H15          4.7380    -0.0150     2.5580 hc         1 O2S       0.026700
     26 H16          4.7350     1.7540     2.5500 hc         1 O2S       0.026700
@<TRIPOS>BOND
     1     3     2 1
     2     1     2 1
     3     2     4 1
     4     8     6 1
     5    10     9 1
     6     6     5 1
     7     6     7 1
     8     4     9 1
     9     4     5 1
    10     9    11 1
    11     4    12 1
    12     5    13 1
    13     5    14 1
    14     6    15 1
    15     7    16 1
    16     7    17 1
    17     7    18 1
    18     8    19 1
    19     8    20 1
    20     8    21 1
    21     9    22 1
    22    10    23 1
    23    11    24 1
    24    11    25 1
    25    11    26 1
@<TRIPOS>SUBSTRUCTURE
     1 O2S         1 TEMP              0 ****  ****    0 ROOT
