@<TRIPOS>MOLECULE
molecule
   49    50     1     0     0
SMALL
bcc


@<TRIPOS>ATOM
      1 C1           0.0000     0.0000     0.0000 c3         1 O2T       0.071600
      2 C3           1.5060     0.0000     0.0000 ca         1 O2T      -0.400900
      3 C4           2.2140     0.0000     1.1860 ca         1 O2T       0.514200
      4 N5           3.5400    -0.0010     1.1470 nb         1 O2T      -0.773000
      5 C6           4.1860    -0.0020    -0.0000 ca         1 O2T       0.699300
      6 N7           3.5520    -0.0000    -1.1550 nb         1 O2T      -0.787000
      7 C8           2.2230    -0.0060    -1.2000 ca         1 O2T       0.735200
      8 N9           1.5580    -0.0050    -2.4160 nv         1 O2T      -1.063500
      9 C10          5.6930    -0.0020     0.0070 c3         1 O2T      -0.119400
     10 N11         -0.4890    -1.3810    -0.0130 na         1 O2T       0.070900
     11 C12         -0.6000    -2.0650     1.0740 cc         1 O2T      -0.088700
     12 S13         -1.2010    -3.6290     0.7280 ss         1 O2T       0.121200
     13 C14         -1.2690    -3.2320    -0.9870 cc         1 O2T      -0.091400
     14 C15         -0.8390    -1.9750    -1.1360 cd         1 O2T      -0.099600
     15 C19         -1.7320    -4.1470    -2.0910 c3         1 O2T      -0.013100
     16 C20         -0.5390    -4.9390    -2.6310 c3         1 O2T       0.237400
     17 O21         -0.9770    -5.8060    -3.6780 os         1 O2T      -0.603200
     18 P22          0.0170    -6.7910    -4.4750 p5         1 O2T       1.435800
     19 O23         -0.8340    -7.7090    -5.4860 os         1 O2T      -0.713800
     20 P24         -0.5520    -9.1060    -6.2360 p5         1 O2T       1.305900
     21 O25          1.0810    -5.9170    -5.3100 o          1 O2T      -0.855000
     22 O27          0.7350    -7.6530    -3.5100 o          1 O2T      -0.855000
     23 O28         -1.5450    -9.2510    -7.4940 o          1 O2T      -0.807167
     24 O29          0.9130    -9.1390    -6.7290 o          1 O2T      -0.807167
     25 O30         -0.7910   -10.2750    -5.2530 o          1 O2T      -0.807167
     26 C2          -0.7670    -1.2910    -2.4770 c3         1 O2T      -0.020800
     27 C16         -0.2510    -1.5620     2.4500 c3         1 O2T       0.308900
     28 O17          1.1460    -1.7550     2.6900 oh         1 O2T      -0.633800
     29 O18         -0.5600    -0.1690     2.5410 oh         1 O2T      -0.633800
     30 C5          -1.0460    -2.3200     3.4810 c          1 O2T       0.836600
     31 O6          -2.3850    -2.3670     3.3940 o          1 O2T      -0.803300
     32 O7          -0.4800    -2.8880     4.3850 o          1 O2T      -0.803300
     33 H1          -0.3610     0.5030     0.8890 h1         1 O2T       0.085700
     34 H2          -0.3610     0.5190    -0.8800 h1         1 O2T       0.085700
     35 H3           1.6940     0.0010     2.1360 h4         1 O2T       0.070100
     36 H4           0.9640     0.7620    -2.6600 hn         1 O2T       0.445300
     37 H5           1.7310    -0.7340    -3.0800 hn         1 O2T       0.445300
     38 H6           6.0550    -1.0120    -0.1440 hc         1 O2T       0.051033
     39 H7           6.0580     0.6360    -0.7890 hc         1 O2T       0.051033
     40 H8           6.0490     0.3710     0.9600 hc         1 O2T       0.051033
     41 H9          -2.4760    -4.8330    -1.7050 hc         1 O2T       0.056700
     42 H10         -2.1650    -3.5580    -2.8910 hc         1 O2T       0.056700
     43 H11         -0.1060    -5.5280    -1.8310 h1         1 O2T       0.025200
     44 H12          0.2050    -4.2530    -3.0180 h1         1 O2T       0.025200
     45 H16         -0.6600    -0.2230    -2.3320 hc         1 O2T       0.051700
     46 H17         -1.6740    -1.4920    -3.0340 hc         1 O2T       0.051700
     47 H18          0.0860    -1.6680    -3.0290 hc         1 O2T       0.051700
     48 H19          1.2860    -1.9380     3.6040 ho         1 O2T       0.419500
     49 H20         -0.7900     0.0450     3.4300 ho         1 O2T       0.419500
@<TRIPOS>BOND
     1    24    20 1
     2    20    19 1
     3    20    23 1
     4    20    25 1
     5    19    18 1
     6    28    27 1
     7    12    11 1
     8    12    13 1
     9     8     7 1
    10    22    18 1
    11    29    27 1
    12    18    21 1
    13    18    17 1
    14    27    11 1
    15    27    30 1
    16    15    13 1
    17    15    16 1
    18    11    10 2
    19    13    14 2
    20     6     7 ar
    21     6     5 ar
    22    16    17 1
    23     7     2 ar
    24    30    32 1
    25    30    31 1
    26    10    14 1
    27    10     1 1
    28    14    26 1
    29     9     5 1
    30     5     4 ar
    31     2     1 1
    32     2     3 ar
    33     4     3 ar
    34     1    33 1
    35     1    34 1
    36     3    35 1
    37     8    36 1
    38     8    37 1
    39     9    38 1
    40     9    39 1
    41     9    40 1
    42    15    41 1
    43    15    42 1
    44    16    43 1
    45    16    44 1
    46    26    45 1
    47    26    46 1
    48    26    47 1
    49    28    48 1
    50    29    49 1
@<TRIPOS>SUBSTRUCTURE
     1 O2T         1 TEMP              0 ****  ****    0 ROOT
