@<TRIPOS>MOLECULE
molecule
   26    25     1     0     0
SMALL
bcc


@<TRIPOS>ATOM
      1 O01          0.0000     0.0000     0.0000 o          1 O2V      -0.833300
      2 C02          1.3420     0.0000     0.0000 c          1 O2V       0.886600
      3 O03          1.9460    -0.0020    -1.0460 o          1 O2V      -0.833300
      4 C04          2.0960     0.0000     1.3050 c3         1 O2V      -0.160700
      5 C05          3.6010    -0.0010     1.0240 c3         1 O2V      -0.046400
      6 C06          3.9910     1.3050     0.3320 c3         1 O2V      -0.078700
      7 C07          3.7580     2.4780     1.2850 c3         1 O2V      -0.085600
      8 C08          5.4690     1.2520    -0.0600 c3         1 O2V      -0.085600
      9 C09          1.7260    -1.2490     2.1080 c3         1 O2V       0.073400
     10 S10         -0.0570    -1.2470     2.4400 sh         1 O2V      -0.346900
     11 C11          2.4910    -1.2480     3.4330 c3         1 O2V      -0.094100
     12 H04          1.8350     0.8850     1.8730 hc         1 O2V       0.053700
     13 H051         3.8480    -0.8380     0.3820 hc         1 O2V       0.024200
     14 H052         4.1420    -0.0910     1.9580 hc         1 O2V       0.024200
     15 H09          1.9870    -2.1340     1.5400 h1         1 O2V       0.054700
     16 H06          3.3860     1.4370    -0.5570 hc         1 O2V       0.111700
     17 H071         2.7080     2.7430     1.2820 hc         1 O2V       0.019700
     18 H072         4.0550     2.1940     2.2870 hc         1 O2V       0.019700
     19 H073         4.3460     3.3290     0.9620 hc         1 O2V       0.019700
     20 H081         5.6460     0.3860    -0.6870 hc         1 O2V       0.019700
     21 H082         5.7310     2.1510    -0.6050 hc         1 O2V       0.019700
     22 H083         6.0770     1.1810     0.8340 hc         1 O2V       0.019700
     23 H111         2.5340    -0.2390     3.8240 hc         1 O2V       0.025367
     24 H112         3.4970    -1.6150     3.2690 hc         1 O2V       0.025367
     25 H113         1.9840    -1.8900     4.1430 hc         1 O2V       0.025367
     26 H10         -0.4630    -2.4870     2.6860 hs         1 O2V       0.140800
@<TRIPOS>BOND
     1     1     2 1
     2     2     3 1
     3     2     4 1
     4     4     5 1
     5     4     9 1
     6     5     6 1
     7     6     7 1
     8     6     8 1
     9     9    10 1
    10     9    11 1
    11     4    12 1
    12     5    13 1
    13     5    14 1
    14     9    15 1
    15     6    16 1
    16     7    17 1
    17     7    18 1
    18     7    19 1
    19     8    20 1
    20     8    21 1
    21     8    22 1
    22    11    23 1
    23    11    24 1
    24    11    25 1
    25    10    26 1
@<TRIPOS>SUBSTRUCTURE
     1 O2V         1 TEMP              0 ****  ****    0 ROOT
