@<TRIPOS>MOLECULE
O2W
   52    55     1     0     0
SMALL
bcc


@<TRIPOS>ATOM
      1 CAA          0.0000     0.0000     0.0000 c3         1 O2W       0.273700
      2 NAB          7.5670     6.9420     9.5300 nv         1 O2W      -0.564200
      3 OAC          1.4030     0.0000     2.2100 o          1 O2W      -0.563000
      4 OAD          6.0910     0.0010     1.9890 o          1 O2W      -0.673000
      5 CAG          9.3270     1.2510     4.1140 c3         1 O2W      -0.017900
      6 CAH          7.8240     1.2500     3.8360 c3         1 O2W      -0.067400
      7 CAI          7.4540     5.5690     7.5470 ca         1 O2W      -0.107000
      8 CAJ          7.9990     4.5710     9.6670 ca         1 O2W      -0.107000
      9 CAK          7.5650     4.3340     6.9380 ca         1 O2W      -0.066500
     10 CAL          8.1150     3.3380     9.0560 ca         1 O2W      -0.066500
     11 CAM          9.3280    -1.2470     4.1110 c3         1 O2W      -0.017900
     12 CAN          3.5660    -0.0000     1.2750 c3         1 O2W       0.201400
     13 CAO          7.8240    -1.2490     3.8360 c3         1 O2W      -0.067400
     14 NAP          5.7510     0.0010     4.1840 ns         1 O2W      -0.157900
     15 OAQ          1.4520     0.0000     0.0000 os         1 O2W      -0.417900
     16 OAR          3.9780     0.0010     2.6680 os         1 O2W      -0.392900
     17 CAS          2.0610     0.0000     1.1960 c          1 O2W       0.675100
     18 CAT          5.3020    -0.0000     2.9130 c          1 O2W       0.687100
     19 CAU          9.1730     1.3120     6.9570 c          1 O2W       0.622500
     20 CAV          6.9590     1.3160     6.5460 c          1 O2W       0.624500
     21 CAW          7.6730     5.6910     8.9130 ca         1 O2W       0.050600
     22 CAX          7.8960     3.2160     7.6910 ca         1 O2W      -0.116400
     23 CAY          9.6990     0.0000     4.9140 c3         1 O2W      -0.027700
     24 CAZ          8.9420    -0.0020     6.2420 c3         1 O2W      -0.120700
     25 CBA          7.4260    -0.0000     5.9630 c3         1 O2W      -0.147700
     26 NBB          8.0080     1.9620     7.0710 n          1 O2W       0.014400
     27 CBC          7.1910     0.0010     4.4510 c3         1 O2W       0.060400
     28 HAA         -0.3610    -0.0000    -1.0210 h1         1 O2W       0.002033
     29 HAAA        -0.3610    -0.8840     0.5110 h1         1 O2W       0.002033
     30 HAAB        -0.3610     0.8850     0.5110 h1         1 O2W       0.002033
     31 HNAB         6.6870     7.2450     9.8990 hn         1 O2W       0.276300
     32 HNAA         8.3700     7.5350     9.6020 hn         1 O2W       0.276300
     33 HAG          9.5890     2.1340     4.6840 hc         1 O2W       0.022200
     34 HAGA         9.8690     1.2530     3.1760 hc         1 O2W       0.022200
     35 HAH          7.6560     1.2500     2.7660 hc         1 O2W       0.045450
     36 HAHA         7.3760     2.1340     4.2720 hc         1 O2W       0.045450
     37 HAJ          8.1690     4.6650    10.7330 ha         1 O2W       0.112500
     38 HAK          7.3950     4.2390     5.8720 ha         1 O2W       0.109500
     39 HAL          8.3710     2.4650     9.6430 ha         1 O2W       0.109500
     40 HAM          9.5920    -2.1320     4.6780 hc         1 O2W       0.022200
     41 HAMA         9.8680    -1.2460     3.1720 hc         1 O2W       0.022200
     42 HAN          3.9540     0.8840     0.7840 h1         1 O2W       0.032700
     43 HANA         3.9540    -0.8850     0.7850 h1         1 O2W       0.032700
     44 HAO          7.3780    -2.1330     4.2740 hc         1 O2W       0.045450
     45 HAOA         7.6530    -1.2510     2.7660 hc         1 O2W       0.045450
     46 HNAP         5.1010    -0.0450     4.9440 hn         1 O2W       0.198500
     47 HAY         10.7650     0.0010     5.1070 hc         1 O2W       0.045700
     48 HAZ          9.2280    -0.8440     6.8610 hc         1 O2W       0.064700
     49 HBA          6.9360    -0.8400     6.4400 hc         1 O2W       0.067700
     50 OAE         10.2440     1.7120     7.3620 o          1 O2W      -0.608500
     51 OAF          5.8180     1.7220     6.5390 o          1 O2W      -0.617500
     52 HAI          7.1950     6.4420     6.9590 ha         1 O2W       0.112500
@<TRIPOS>BOND
     1     1    15 1   
     2     1    28 1   
     3     1    29 1   
     4     1    30 1   
     5     2    21 1   
     6     2    31 1   
     7     2    32 1   
     8     3    17 2   
     9     4    18 2   
    10     5     6 1   
    11     5    23 1   
    12     5    33 1   
    13     5    34 1   
    14     6    27 1   
    15     6    35 1   
    16     6    36 1   
    17     7     9 ar  
    18     7    21 ar  
    19     7    52 1   
    20     8    10 ar  
    21     8    21 ar  
    22     8    37 1   
    23     9    22 ar  
    24     9    38 1   
    25    10    22 ar  
    26    10    39 1   
    27    11    13 1   
    28    11    23 1   
    29    11    40 1   
    30    11    41 1   
    31    12    16 1   
    32    12    17 1   
    33    12    42 1   
    34    12    43 1   
    35    13    27 1   
    36    13    44 1   
    37    13    45 1   
    38    14    18 1   
    39    14    27 1   
    40    14    46 1   
    41    15    17 1   
    42    16    18 1   
    43    19    24 1   
    44    19    26 1   
    45    19    50 2   
    46    20    25 1   
    47    20    26 1   
    48    20    51 2   
    49    22    26 1   
    50    23    24 1   
    51    23    47 1   
    52    24    25 1   
    53    24    48 1   
    54    25    27 1   
    55    25    49 1   
@<TRIPOS>SUBSTRUCTURE
     1 O2W         1 TEMP              0 ****  ****    0 ROOT
