@<TRIPOS>MOLECULE
molecule
   52    55     1     0     0
SMALL
bcc


@<TRIPOS>ATOM
      1 CAA          0.0000     0.0000     0.0000 c3         1 O2W       0.142700
      2 NAB          7.5670     6.9420     9.5300 nv         1 O2W      -0.993200
      3 OAC          1.4030     0.0000     2.2100 o          1 O2W      -0.519000
      4 OAD          6.0910     0.0010     1.9890 o          1 O2W      -0.625000
      5 CAG          9.3270     1.2510     4.1140 c3         1 O2W      -0.075900
      6 CAH          7.8240     1.2500     3.8360 c3         1 O2W      -0.100900
      7 CAI          7.4540     5.5690     7.5470 ca         1 O2W      -0.138000
      8 CAJ          7.9990     4.5710     9.6670 ca         1 O2W      -0.138000
      9 CAK          7.5650     4.3340     6.9380 ca         1 O2W      -0.103000
     10 CAL          8.1150     3.3380     9.0560 ca         1 O2W      -0.103000
     11 CAM          9.3280    -1.2470     4.1110 c3         1 O2W      -0.075900
     12 CAN          3.5660    -0.0000     1.2750 c3         1 O2W       0.125400
     13 CAO          7.8240    -1.2490     3.8360 c3         1 O2W      -0.100900
     14 NAP          5.7510     0.0010     4.1840 ns         1 O2W      -0.558900
     15 OAQ          1.4520     0.0000     0.0000 os         1 O2W      -0.429900
     16 OAR          3.9780     0.0010     2.6680 os         1 O2W      -0.412900
     17 CAS          2.0610     0.0000     1.1960 c          1 O2W       0.622100
     18 CAT          5.3020    -0.0000     2.9130 c          1 O2W       0.760100
     19 CAU          9.1730     1.3120     6.9570 c          1 O2W       0.710500
     20 CAV          6.9590     1.3160     6.5460 c          1 O2W       0.711500
     21 CAW          7.6730     5.6910     8.9130 ca         1 O2W       0.176600
     22 CAX          7.8960     3.2160     7.6910 ca         1 O2W       0.018600
     23 CAY          9.6990     0.0000     4.9140 c3         1 O2W      -0.058700
     24 CAZ          8.9420    -0.0020     6.2420 c3         1 O2W      -0.143700
     25 CBA          7.4260    -0.0000     5.9630 c3         1 O2W      -0.165700
     26 NBB          8.0080     1.9620     7.0710 n          1 O2W      -0.394600
     27 CBC          7.1910     0.0010     4.4510 c3         1 O2W       0.174400
     28 HAA         -0.3610    -0.0000    -1.0210 h1         1 O2W       0.052367
     29 HAAA        -0.3610    -0.8840     0.5110 h1         1 O2W       0.052367
     30 HAAB        -0.3610     0.8850     0.5110 h1         1 O2W       0.052367
     31 HNAB         6.6870     7.2450     9.8990 hn         1 O2W       0.430300
     32 HNAA         8.3700     7.5350     9.6020 hn         1 O2W       0.430300
     33 HAG          9.5890     2.1340     4.6840 hc         1 O2W       0.052700
     34 HAGA         9.8690     1.2530     3.1760 hc         1 O2W       0.052700
     35 HAH          7.6560     1.2500     2.7660 hc         1 O2W       0.070200
     36 HAHA         7.3760     2.1340     4.2720 hc         1 O2W       0.070200
     37 HAJ          8.1690     4.6650    10.7330 ha         1 O2W       0.142000
     38 HAK          7.3950     4.2390     5.8720 ha         1 O2W       0.139000
     39 HAL          8.3710     2.4650     9.6430 ha         1 O2W       0.139000
     40 HAM          9.5920    -2.1320     4.6780 hc         1 O2W       0.052700
     41 HAMA         9.8680    -1.2460     3.1720 hc         1 O2W       0.052700
     42 HAN          3.9540     0.8840     0.7840 h1         1 O2W       0.081700
     43 HANA         3.9540    -0.8850     0.7850 h1         1 O2W       0.081700
     44 HAO          7.3780    -2.1330     4.2740 hc         1 O2W       0.070200
     45 HAOA         7.6530    -1.2510     2.7660 hc         1 O2W       0.070200
     46 HNAP         5.1010    -0.0450     4.9440 hn         1 O2W       0.343500
     47 HAY         10.7650     0.0010     5.1070 hc         1 O2W       0.073700
     48 HAZ          9.2280    -0.8440     6.8610 hc         1 O2W       0.095700
     49 HBA          6.9360    -0.8400     6.4400 hc         1 O2W       0.097700
     50 OAE         10.2440     1.7120     7.3620 o          1 O2W      -0.572500
     51 OAF          5.8180     1.7220     6.5390 o          1 O2W      -0.574500
     52 HAI          7.1950     6.4420     6.9590 ha         1 O2W       0.142000
@<TRIPOS>BOND
     1    15     1 1
     2     1    28 1
     3     1    29 1
     4     1    30 1
     5    21     2 1
     6     2    31 1
     7     2    32 1
     8     3    17 2
     9     4    18 2
    10    19    50 2
    11    20    51 2
    12    23     5 1
    13     6     5 1
    14     5    33 1
    15     5    34 1
    16    27     6 1
    17     6    35 1
    18     6    36 1
    19     9     7 ar
    20     7    21 ar
    21     7    52 1
    22    10     8 ar
    23     8    21 ar
    24     8    37 1
    25    22     9 ar
    26     9    38 1
    27    22    10 ar
    28    10    39 1
    29    13    11 1
    30    11    23 1
    31    11    40 1
    32    11    41 1
    33    12    17 1
    34    12    16 1
    35    12    42 1
    36    12    43 1
    37    13    27 1
    38    13    44 1
    39    13    45 1
    40    18    14 1
    41    14    27 1
    42    14    46 1
    43    17    15 1
    44    18    16 1
    45    24    19 1
    46    19    26 1
    47    25    20 1
    48    20    26 1
    49    26    22 1
    50    24    23 1
    51    23    47 1
    52    25    24 1
    53    24    48 1
    54    27    25 1
    55    25    49 1
@<TRIPOS>SUBSTRUCTURE
     1 O2W         1 TEMP              0 ****  ****    0 ROOT
