@<TRIPOS>MOLECULE
O30
   62    65     1     0     0
SMALL
bcc


@<TRIPOS>ATOM
      1 F1           0.0000     0.0000     0.0000 f          1 O30      -0.202633
      2 C2           1.4000     0.0000     0.0000 c3         1 O30       0.575600
      3 F3           1.8660     0.0000     1.3190 f          1 O30      -0.202633
      4 F4           1.8660    -1.1420    -0.6600 f          1 O30      -0.202633
      5 C5           1.9010     1.2310    -0.7110 cc         1 O30       0.272600
      6 N6           1.1610     2.2100    -1.1690 nd         1 O30      -0.579800
      7 N7           2.0070     3.1610    -1.7610 na         1 O30       0.530400
      8 C8           3.2700     2.7190    -1.6410 cd         1 O30      -0.241600
      9 C9           3.2330     1.5280    -0.9900 cc         1 O30      -0.246600
     10 C10          4.4550     0.7050    -0.6630 c3         1 O30       0.066900
     11 C11          5.6200     1.2070    -1.5240 c3         1 O30      -0.028400
     12 C12          5.7250     2.7300    -1.4050 c3         1 O30      -0.025400
     13 C13          4.5370     3.3860    -2.1150 c3         1 O30       0.065900
     14 C14          1.5870     4.4120    -2.3970 c3         1 O30      -0.074700
     15 C15          1.5610     5.5140    -1.3690 c          1 O30       0.513100
     16 O16          1.8620     5.2780    -0.2190 o          1 O30      -0.557100
     17 N17          1.2010     6.7620    -1.7290 ns         1 O30       0.026900
     18 C18          1.1770     7.7760    -0.7830 cc         1 O30       0.011500
     19 S19          1.5770     7.5770     0.8600 ss         1 O30      -0.110800
     20 C20          1.2740     9.2680     1.2240 cc         1 O30      -0.015400
     21 C21          0.8870     9.9280     0.1270 cd         1 O30      -0.070300
     22 C22          0.8340     9.0730    -1.0430 cd         1 O30      -0.254600
     23 C23          0.5500    11.4110     0.1160 c3         1 O30       0.055900
     24 C24          0.3120    11.8740     1.5550 c3         1 O30      -0.029400
     25 C25          1.4850    11.4210     2.4300 c3         1 O30      -0.032400
     26 C26          1.4270     9.9010     2.5940 c3         1 O30       0.076900
     27 C27          0.4460     9.5520    -2.3740 c          1 O30       0.630700
     28 O28         -0.7230     9.5280    -2.7130 o          1 O30      -0.612100
     29 N29          1.3840    10.0200    -3.2220 ns         1 O30      -0.227900
     30 C30          0.9970    10.4980    -4.5510 c3         1 O30       0.069000
     31 C31          2.2410    10.9710    -5.3050 c3         1 O30      -0.050400
     32 C32          1.8370    11.4710    -6.6930 c3         1 O30      -0.046200
     33 N33          3.0320    11.9240    -7.4170 nz         1 O30       0.087400
     34 H10          4.2610    -0.3370    -0.8850 hc         1 O30       0.030700
     35 H10A         4.7010     0.8210     0.3850 hc         1 O30       0.030700
     36 H11          5.4440     0.9390    -2.5590 hc         1 O30       0.019700
     37 H11A         6.5420     0.7540    -1.1800 hc         1 O30       0.019700
     38 H12          5.6750     2.9900    -0.3540 hc         1 O30       0.025700
     39 H12A         6.6330     3.0450    -1.9060 hc         1 O30       0.025700
     40 H13          4.5010     4.4290    -1.8270 hc         1 O30       0.018200
     41 H13A         4.6370     3.2090    -3.1790 hc         1 O30       0.018200
     42 H14          0.5970     4.2880    -2.8190 h1         1 O30       0.050200
     43 H14A         2.2850     4.6690    -3.1840 h1         1 O30       0.050200
     44 HN17         0.9070     6.9470    -2.6680 hn         1 O30       0.164500
     45 H23          1.3770    11.9670    -0.3110 hc         1 O30       0.016200
     46 H23A        -0.3460    11.5740    -0.4700 hc         1 O30       0.016200
     47 H24         -0.6070    11.4360     1.9270 hc         1 O30       0.023700
     48 H24A         0.2390    12.9550     1.5790 hc         1 O30       0.023700
     49 H25          2.4060    11.6730     1.9190 hc         1 O30       0.023700
     50 H25A         1.3710    11.8720     3.4090 hc         1 O30       0.023700
     51 H26          2.3680     9.5690     3.0180 hc         1 O30       0.034200
     52 H26A         0.5510     9.6550     3.1820 hc         1 O30       0.034200
     53 HN29         2.3410    10.0680    -2.9310 hn         1 O30       0.184500
     54 H30          0.5250     9.6930    -5.1010 h1         1 O30       0.035200
     55 H30A         0.3020    11.3230    -4.4500 h1         1 O30       0.035200
     56 H31          2.7130    11.7750    -4.7550 hc         1 O30       0.035200
     57 H31A         2.9370    10.1460    -5.4070 hc         1 O30       0.035200
     58 H32          1.3650    10.6660    -7.2440 hx         1 O30       0.089700
     59 H32A         1.1420    12.2950    -6.5920 hx         1 O30       0.089700
     60 HN33         3.6740    11.1630    -7.5110 hn         1 O30       0.224800
     61 HN3A         3.4680    12.6680    -6.9090 hn         1 O30       0.224800
     62 H333         2.7670    12.2510    -8.3250 hn         1 O30       0.224800
@<TRIPOS>BOND
     1     1     2 1   
     2     2     3 1   
     3     2     4 1   
     4     2     5 1   
     5     5     6 2   
     6     5     9 1   
     7     6     7 1   
     8     7     8 1   
     9     7    14 1   
    10     8     9 2   
    11     8    13 1   
    12     9    10 1   
    13    10    11 1   
    14    10    34 1   
    15    10    35 1   
    16    11    12 1   
    17    11    36 1   
    18    11    37 1   
    19    12    13 1   
    20    12    38 1   
    21    12    39 1   
    22    13    40 1   
    23    13    41 1   
    24    14    15 1   
    25    14    42 1   
    26    14    43 1   
    27    15    16 2   
    28    15    17 1   
    29    17    18 1   
    30    17    44 1   
    31    18    19 1   
    32    18    22 2   
    33    19    20 1   
    34    20    21 2   
    35    20    26 1   
    36    21    22 1   
    37    21    23 1   
    38    22    27 1   
    39    23    24 1   
    40    23    45 1   
    41    23    46 1   
    42    24    25 1   
    43    24    47 1   
    44    24    48 1   
    45    25    26 1   
    46    25    49 1   
    47    25    50 1   
    48    26    51 1   
    49    26    52 1   
    50    27    28 2   
    51    27    29 1   
    52    29    30 1   
    53    29    53 1   
    54    30    31 1   
    55    30    54 1   
    56    30    55 1   
    57    31    32 1   
    58    31    56 1   
    59    31    57 1   
    60    32    33 1   
    61    32    58 1   
    62    32    59 1   
    63    33    60 1   
    64    33    61 1   
    65    33    62 1   
@<TRIPOS>SUBSTRUCTURE
     1 O30         1 TEMP              0 ****  ****    0 ROOT
