@<TRIPOS>MOLECULE
O38
   57    62     1     0     0
SMALL
bcc


@<TRIPOS>ATOM
      1 N6          -0.8050    -0.1080    -2.2880 n1         1 O38      -0.050000
      2 C23         -0.4900     0.0020    -1.3890 c1         1 O38      -0.111000
      3 C22          0.0000     0.0000     0.0000 c3         1 O38      -0.488000
      4 O            1.4290     0.0000     0.0000 os         1 O38       0.080000
      5 C21          2.0450     0.0000     1.2120 ca         1 O38      -0.021000
      6 C4           3.4420    -0.0010     1.2870 ca         1 O38       0.026000
      7 C2           4.2530     0.0000     0.0440 c2         1 O38      -0.244000
      8 C1           5.2900     0.8390    -0.2400 c2         1 O38      -0.199000
      9 C3           4.0980    -0.8700    -1.0520 c2         1 O38      -0.052000
     10 N1           4.9960    -0.5600    -1.9500 n2         1 O38      -0.180000
     11 N            5.7560     0.5110    -1.4640 na         1 O38       0.210000
     12 C            6.8700     1.1600    -2.1610 c3         1 O38      -0.066000
     13 C20          1.2930     0.0040     2.3740 ca         1 O38      -0.104000
     14 C7           1.9240     0.0040     3.6100 ca         1 O38      -0.026000
     15 C6           3.3130    -0.0000     3.6850 ca         1 O38      -0.083000
     16 C5           4.0680    -0.0020     2.5300 ca         1 O38      -0.076000
     17 N2           1.1630     0.0100     4.7820 nu         1 O38      -0.113000
     18 C8           1.6260     0.6770     5.9050 c3         1 O38       0.150000
     19 N5           2.7290     1.4060     5.8230 n2         1 O38      -0.236000
     20 C13          3.2070     2.0610     6.8700 c2         1 O38       0.094000
     21 C11          2.5460     1.9950     8.1090 c2         1 O38      -0.124000
     22 C12          3.0580     2.7010     9.2450 c1         1 O38      -0.080000
     23 N3           3.4770     3.2700    10.1340 n1         1 O38      -0.063000
     24 C10          1.3760     1.2280     8.2150 c2         1 O38       0.039000
     25 C9           0.9200     0.5740     7.1030 c2         1 O38      -0.291000
     26 N4           4.3620     2.8120     6.7440 n7         1 O38       0.113000
     27 C14          5.0530     2.8810     5.4540 c3         1 O38      -0.183000
     28 C19          6.5310     3.2010     5.6850 c3         1 O38      -0.310000
     29 C18          7.2540     3.2740     4.3380 DU         1 O38       0.107000
     30 C17          6.6220     4.3720     3.4800 c3         1 O38      -0.381000
     31 C16          5.1440     4.0520     3.2490 c3         1 O38       0.108000
     32 C15          4.4210     3.9780     4.5960 c3         1 O38      -0.348000
     33 H1           1.0330     0.3010    -0.1280 h1         1 O38       0.210000
     34 H2          -0.2720    -0.8150     0.6600 h1         1 O38       0.210000
     35 H3           5.7120     1.6530     0.3360 h4         1 O38       0.138000
     36 H4           3.2650    -1.5580    -0.9700 h4         1 O38       0.152000
     37 H5           6.4630     0.8780    -3.1250 h1         1 O38       0.079000
     38 H6           7.7750     0.6290    -1.8910 h1         1 O38       0.079000
     39 H7           6.5610     2.1210    -1.7680 h1         1 O38       0.079000
     40 H8           0.2600     0.2550     2.1660 ha         1 O38       0.176000
     41 H9           3.6530    -0.0800     4.7100 ha         1 O38       0.147000
     42 H10          5.1510     0.0440     2.5180 ha         1 O38       0.113000
     43 H11          1.1670     0.7810     5.4200 DU         1 O38       0.184000
     44 H12          0.7160     1.2850     9.0720 ha         1 O38       0.119000
     45 H13          0.0830    -0.0520     7.3890 ha         1 O38       0.150000
     46 H14          4.4880     3.7950     6.8800 hn         1 O38       0.090000
     47 H15          4.9670     1.9310     4.9410 h1         1 O38       0.109000
     48 H16          6.6450     3.4410     4.6340 DU         1 O38       0.124000
     49 H17          6.5880     4.2300     6.0200 hc         1 O38       0.020000
     50 H18          7.5850     2.2450     4.2750 ha         1 O38       0.104500
     51 H19          8.2460     3.6970     4.4390 ha         1 O38       0.104500
     52 H20          6.8250     5.3940     3.7780 hc         1 O38       0.111000
     53 H21          6.4940     4.5950     2.4280 hc         1 O38       0.111000
     54 H22          4.3910     4.7370     2.8780 hc         1 O38       0.103500
     55 H23          4.7710     3.2900     2.5750 hc         1 O38       0.103500
     56 H24          4.4980     4.7810     5.3190 hc         1 O38       0.042500
     57 H25          5.1030     4.1000     3.7630 hc         1 O38       0.042500
@<TRIPOS>BOND
     1     1     2 1   
     2     2     3 1   
     3     3     4 1   
     4     3    33 1   
     5     3    34 1   
     6     4     5 1   
     7     5     6 1   
     8     5    13 1   
     9     6     7 1   
    10     6    16 1   
    11     7     8 1   
    12     7     9 1   
    13     8    11 1   
    14     8    35 1   
    15     9    10 1   
    16     9    36 1   
    17    10    11 1   
    18    11    12 1   
    19    12    37 1   
    20    12    38 1   
    21    12    39 1   
    22    13    14 1   
    23    13    40 1   
    24    14    15 1   
    25    14    17 1   
    26    15    16 1   
    27    15    41 1   
    28    16    42 1   
    29    17    18 1   
    30    17    43 1   
    31    18    19 1   
    32    18    25 1   
    33    18    43 1   
    34    19    20 1   
    35    20    21 1   
    36    20    26 1   
    37    21    22 1   
    38    21    24 1   
    39    22    23 1   
    40    24    25 1   
    41    24    44 1   
    42    25    45 1   
    43    26    27 1   
    44    26    46 1   
    45    27    28 1   
    46    27    32 1   
    47    27    47 1   
    48    28    29 1   
    49    28    48 1   
    50    28    49 1   
    51    29    30 1   
    52    29    48 1   
    53    29    50 1   
    54    29    51 1   
    55    30    31 1   
    56    30    52 1   
    57    30    53 1   
    58    31    32 1   
    59    31    54 1   
    60    31    55 1   
    61    32    56 1   
    62    32    57 1   
@<TRIPOS>SUBSTRUCTURE
     1 O38         1 TEMP              0 ****  ****    0 ROOT
