@<TRIPOS>MOLECULE
molecule
   57    60     1     0     0
SMALL
bcc


@<TRIPOS>ATOM
      1 N6          -0.8050    -0.1080    -2.2880 n1         1 O38      -0.404800
      2 C23         -0.4900     0.0020    -1.3890 c1         1 O38       0.327700
      3 C22          0.0000     0.0000     0.0000 c3         1 O38      -0.375500
      4 O            1.4290     0.0000     0.0000 os         1 O38      -0.170900
      5 C21          2.0450     0.0000     1.2120 ca         1 O38       0.072100
      6 C4           3.4420    -0.0010     1.2870 ca         1 O38       0.019000
      7 C2           4.2530     0.0000     0.0440 cc         1 O38      -0.296300
      8 C1           5.2900     0.8390    -0.2400 cd         1 O38      -0.105300
      9 C3           4.0980    -0.8700    -1.0520 cc         1 O38       0.360200
     10 N1           4.9960    -0.5600    -1.9500 nd         1 O38      -0.498800
     11 N            5.7560     0.5110    -1.4640 na         1 O38       0.033400
     12 C            6.8700     1.1600    -2.1610 c3         1 O38       0.059600
     13 C20          1.2930     0.0040     2.3740 ca         1 O38      -0.116000
     14 C7           1.9240     0.0040     3.6100 ca         1 O38       0.077600
     15 C6           3.3130    -0.0000     3.6850 ca         1 O38      -0.092000
     16 C5           4.0680    -0.0020     2.5300 ca         1 O38      -0.114000
     17 N2           1.1630     0.0100     4.7820 nu         1 O38      -0.710300
     18 C8           1.6260     0.6770     5.9050 ca         1 O38       0.670200
     19 N5           2.7290     1.4060     5.8230 nb         1 O38      -0.846000
     20 C13          3.2070     2.0610     6.8700 ca         1 O38       0.766200
     21 C11          2.5460     1.9950     8.1090 ca         1 O38      -0.221300
     22 C12          3.0580     2.7010     9.2450 cg         1 O38       0.255800
     23 N3           3.4770     3.2700    10.1340 n1         1 O38      -0.370800
     24 C10          1.3760     1.2280     8.2150 ca         1 O38       0.001000
     25 C9           0.9200     0.5740     7.1030 ca         1 O38      -0.357300
     26 N4           4.3620     2.8120     6.7440 nu         1 O38      -0.778900
     27 C14          5.0530     2.8810     5.4540 c3         1 O38       0.117500
     28 C19          6.5310     3.2010     5.6850 c3         1 O38      -0.340900
     29 C18          7.2540     3.2740     4.3380 c3         1 O38      -0.012900
     30 C17          6.6220     4.3720     3.4800 c3         1 O38      -0.360400
     31 C16          5.1440     4.0520     3.2490 c3         1 O38      -0.012900
     32 C15          4.4210     3.9780     4.5960 c3         1 O38      -0.340900
     33 H1           1.0330     0.3010    -0.1280 h1         1 O38       0.187700
     34 H2          -0.2720    -0.8150     0.6600 h1         1 O38       0.187700
     35 H3           5.7120     1.6530     0.3360 h4         1 O38       0.160000
     36 H4           3.2650    -1.5580    -0.9700 h4         1 O38       0.064100
     37 H5           6.4630     0.8780    -3.1250 h1         1 O38       0.078033
     38 H6           7.7750     0.6290    -1.8910 h1         1 O38       0.078033
     39 H7           6.5610     2.1210    -1.7680 h1         1 O38       0.078033
     40 H8           0.2600     0.2550     2.1660 ha         1 O38       0.194000
     41 H9           3.6530    -0.0800     4.7100 ha         1 O38       0.174000
     42 H10          5.1510     0.0440     2.5180 ha         1 O38       0.144000
     43 H11          1.1670     0.7810     5.4200 hn         1 O38       0.490800
     44 H12          0.7160     1.2850     9.0720 ha         1 O38       0.156000
     45 H13          0.0830    -0.0520     7.3890 ha         1 O38       0.171000
     46 H14          4.4880     3.7950     6.8800 hn         1 O38       0.428800
     47 H15          4.9670     1.9310     4.9410 h1         1 O38       0.083700
     48 H16          6.6450     3.4410     4.6340 hc         1 O38       0.102700
     49 H17          6.5880     4.2300     6.0200 hc         1 O38       0.102700
     50 H18          7.5850     2.2450     4.2750 hc         1 O38       0.120700
     51 H19          8.2460     3.6970     4.4390 hc         1 O38       0.120700
     52 H20          6.8250     5.3940     3.7780 hc         1 O38       0.097200
     53 H21          6.4940     4.5950     2.4280 hc         1 O38       0.097200
     54 H22          4.3910     4.7370     2.8780 hc         1 O38       0.120700
     55 H23          4.7710     3.2900     2.5750 hc         1 O38       0.120700
     56 H24          4.4980     4.7810     5.3190 hc         1 O38       0.102700
     57 H25          5.1030     4.1000     3.7630 hc         1 O38       0.102700
@<TRIPOS>BOND
     1    23    22 3
     2    22    21 1
     3    32    31 1
     4    32    27 1
     5    30    31 1
     6    30    29 1
     7    26    27 1
     8    26    20 1
     9    21    20 ar
    10    21    24 ar
    11    27    28 1
    12    28    29 1
    13    20    19 ar
    14    24    25 ar
    15    19    18 ar
    16    25    18 ar
    17    18    17 1
    18    17    14 1
    19    15    14 ar
    20    15    16 ar
    21    14    13 ar
    22    16     6 ar
    23    13     5 ar
    24     6     5 ar
    25     6     7 1
    26     8     7 2
    27     8    11 1
    28     5     4 1
    29     7     9 1
    30    11    12 1
    31    11    10 1
    32     4     3 1
    33     9    10 2
    34     3     2 1
    35     2     1 3
    36     3    33 1
    37     3    34 1
    38     8    35 1
    39     9    36 1
    40    12    37 1
    41    12    38 1
    42    12    39 1
    43    13    40 1
    44    15    41 1
    45    16    42 1
    46    17    43 1
    47    24    44 1
    48    25    45 1
    49    26    46 1
    50    27    47 1
    51    28    48 1
    52    28    49 1
    53    29    50 1
    54    29    51 1
    55    30    52 1
    56    30    53 1
    57    31    54 1
    58    31    55 1
    59    32    56 1
    60    32    57 1
@<TRIPOS>SUBSTRUCTURE
     1 O38         1 TEMP              0 ****  ****    0 ROOT
