@<TRIPOS>MOLECULE
molecule
   76    79     1     0     0
SMALL
bcc


@<TRIPOS>ATOM
      1 C1           0.0000     0.0000     0.0000 ca         1 O3N      -0.154000
      2 C2           1.3840     0.0000     0.0000 ca         1 O3N      -0.131000
      3 C3          -0.6920     0.0010     1.1930 ca         1 O3N      -0.112000
      4 C4           2.0830     0.0000     1.1930 ca         1 O3N      -0.145000
      5 C5           1.7120     0.4100     7.0440 ca         1 O3N      -0.138000
      6 C6           0.7360     0.8690     7.9120 ca         1 O3N      -0.161000
      7 C7           0.0070     0.0020     2.4030 ca         1 O3N      -0.092600
      8 C8           0.6210    -1.7280     6.9410 ca         1 O3N      -0.031600
      9 C9           1.4020     0.0010     2.3940 ca         1 O3N      -0.008300
     10 C10          1.6620    -0.8780     6.5570 ca         1 O3N      -0.069300
     11 C11         -0.3030     0.0380     8.3010 ca         1 O3N       0.059100
     12 C12         -0.3660    -1.2640     7.8210 ca         1 O3N       0.067100
     13 C14          2.6880    -3.6880     3.7240 c2         1 O3N      -0.116200
     14 C15         -0.7280     0.0040     3.6850 c          1 O3N       0.664700
     15 C17         -4.0330     1.8320    12.1690 c          1 O3N       0.892600
     16 C18         -6.9680    -1.1710     5.0420 c3         1 O3N      -0.079400
     17 C19         -6.5750     0.1360     5.7320 c3         1 O3N      -0.079900
     18 C20         -6.2090    -1.2990     3.7200 c3         1 O3N      -0.079900
     19 C21         -5.0700     0.1350     6.0060 c3         1 O3N      -0.074400
     20 C22         -4.7030    -1.3000     3.9940 c3         1 O3N      -0.074400
     21 C23         -2.5340    -1.4880     8.7670 c3         1 O3N       0.099400
     22 C24         -4.3100     0.0080     4.6850 c3         1 O3N      -0.087700
     23 C25         -2.0730    -0.4600     9.8090 c3         1 O3N       0.100100
     24 C26          2.1650    -0.0000     3.6940 c3         1 O3N       0.197100
     25 C27          2.7270    -1.3690     5.6110 c3         1 O3N       0.226100
     26 C28          2.9880    -2.2540     3.3730 c3         1 O3N       0.188000
     27 C30         -2.8050     0.0070     4.9600 c3         1 O3N       0.114000
     28 C31         -3.2910     0.2260    10.4320 c3         1 O3N      -0.056400
     29 N32         -2.0760     0.0050     3.6880 ns         1 O3N      -0.586900
     30 N33          2.2030    -1.3640     4.2380 n3         1 O3N      -0.660600
     31 O34         -0.1770    -3.3880     5.3320 o          1 O3N      -0.842800
     32 O35         -3.8710     2.6990    13.1810 o          1 O3N      -0.867300
     33 O36         -0.1180     0.0040     4.7350 o          1 O3N      -0.534100
     34 O37          1.1820    -3.9920     6.9810 o          1 O3N      -0.842800
     35 O38         -5.1410     1.5930    11.7490 o          1 O3N      -0.867300
     36 O39         -1.3720    -2.0970     8.1940 os         1 O3N      -0.300900
     37 O40         -1.2560     0.5130     9.1490 os         1 O3N      -0.327900
     38 H1          -0.5410    -0.0000    -0.9390 ha         1 O3N       0.112000
     39 H2           1.9230    -0.0010    -0.9400 ha         1 O3N       0.109000
     40 H3          -1.7750     0.0020     1.1920 ha         1 O3N       0.121000
     41 H4           3.1660    -0.0010     1.1850 ha         1 O3N       0.123000
     42 H5           2.5190     1.0680     6.7450 ha         1 O3N       0.096000
     43 H6           0.7840     1.8830     8.2890 ha         1 O3N       0.117000
     44 H261         3.1760     0.3470     3.5190 h1         1 O3N       0.046700
     45 H262         1.6750     0.6570     4.4010 h1         1 O3N       0.046700
     46 H271         3.5910    -0.7170     5.6700 h1         1 O3N       0.032200
     47 H272         3.0160    -2.3760     5.8840 h1         1 O3N       0.032200
     48 H131         2.0590    -5.5490     3.0500 ha         1 O3N       0.095500
     49 H132         2.1490    -4.1720     1.7780 ha         1 O3N       0.095500
     50 H14          2.8140    -4.0340     4.7430 ha         1 O3N       0.158000
     51 H281         2.7260    -2.0740     2.3370 h1         1 O3N       0.013700
     52 H282         4.0440    -2.0600     3.5170 h1         1 O3N       0.013700
     53 H32         -2.5780     0.0570     2.8240 hn         1 O3N       0.293500
     54 H291        -2.1640     1.9070    11.1540 hc         1 O3N       0.037200
     55 H292        -2.3170     0.5810    12.3150 hc         1 O3N       0.037200
     56 H181        -6.7160    -2.0070     5.6840 hc         1 O3N       0.034700
     57 H182        -8.0330    -1.1680     4.8460 hc         1 O3N       0.034700
     58 H191        -7.1110     0.2240     6.6690 hc         1 O3N       0.031700
     59 H192        -6.8230     0.9720     5.0880 hc         1 O3N       0.031700
     60 H201        -6.4860    -2.2260     3.2330 hc         1 O3N       0.031700
     61 H202        -6.4570    -0.4610     3.0800 hc         1 O3N       0.031700
     62 H211        -4.7920     1.0630     6.4930 hc         1 O3N       0.055700
     63 H212        -4.8210    -0.7030     6.6460 hc         1 O3N       0.055700
     64 H221        -4.1660    -1.3870     3.0570 hc         1 O3N       0.055700
     65 H222        -4.4550    -2.1350     4.6380 hc         1 O3N       0.055700
     66 H24         -4.5640     0.8430     4.0430 hc         1 O3N       0.032700
     67 H231        -3.1430    -2.2440     9.2460 h1         1 O3N       0.050700
     68 H232        -3.1040    -0.9900     7.9920 h1         1 O3N       0.050700
     69 H25         -1.4950    -0.9580    10.5780 h1         1 O3N       0.049700
     70 H301        -2.5400     0.8920     5.5260 h1         1 O3N       0.073200
     71 H302        -2.5420    -0.8780     5.5280 h1         1 O3N       0.073200
     72 H311        -3.9610    -0.5250    10.8350 hc         1 O3N       0.052200
     73 H312        -3.8090     0.8010     9.6740 hc         1 O3N       0.052200
     74 C13          2.2750    -4.5180     2.7970 c2         1 O3N      -0.241000
     75 C29         -2.8330     1.1570    11.5560 c3         1 O3N      -0.180400
     76 C16          0.5630    -3.1080     6.4240 c          1 O3N       0.901200
@<TRIPOS>BOND
     1     1     2 ar
     2     1     3 ar
     3     2     4 ar
     4     3     7 ar
     5     4     9 ar
     6     5     6 ar
     7     5    10 ar
     8     6    11 ar
     9     7     9 ar
    10     7    14 1
    11     8    10 ar
    12     8    12 ar
    13     8    76 1
    14     9    24 1
    15    10    25 1
    16    11    12 ar
    17    11    37 1
    18    12    36 1
    19    74    13 2
    20    13    26 1
    21    14    29 1
    22    14    33 2
    23    76    31 1
    24    76    34 1
    25    15    75 1
    26    15    32 1
    27    15    35 1
    28    16    17 1
    29    16    18 1
    30    17    19 1
    31    18    20 1
    32    19    22 1
    33    20    22 1
    34    21    23 1
    35    21    36 1
    36    22    27 1
    37    23    28 1
    38    23    37 1
    39    24    30 1
    40    25    30 1
    41    26    30 1
    42    75    28 1
    43    27    29 1
    44     1    38 1
    45     2    39 1
    46     3    40 1
    47     4    41 1
    48     5    42 1
    49     6    43 1
    50    24    44 1
    51    24    45 1
    52    25    46 1
    53    25    47 1
    54    74    48 1
    55    74    49 1
    56    13    50 1
    57    26    51 1
    58    26    52 1
    59    29    53 1
    60    75    54 1
    61    75    55 1
    62    16    56 1
    63    16    57 1
    64    17    58 1
    65    17    59 1
    66    18    60 1
    67    18    61 1
    68    19    62 1
    69    19    63 1
    70    20    64 1
    71    20    65 1
    72    22    66 1
    73    21    67 1
    74    21    68 1
    75    23    69 1
    76    27    70 1
    77    27    71 1
    78    28    72 1
    79    28    73 1
@<TRIPOS>SUBSTRUCTURE
     1 O3N         1 TEMP              0 ****  ****    0 ROOT
