@<TRIPOS>MOLECULE
O40
   58    60     1     0     0
SMALL
bcc


@<TRIPOS>ATOM
      1 C1         -0.2410    0.1620   -0.0240 ca        1 O40     -0.213000
      2 C2          1.1640    0.0830   -0.1030 ca        1 O40      0.150100
      3 C3          1.9900    0.0090    1.0440 ca        1 O40     -0.072300
      4 C4          1.2970    0.0120    2.2460 ca        1 O40      0.070100
      5 C5         -0.1270    0.0870    2.3570 ca        1 O40     -0.218900
      6 C6         -0.8970    0.1670    1.2050 ca        1 O40     -0.022000
      7 O7          1.8280   -0.0630    3.5570 os        1 O40      0.010400
      8 N8          0.8380   -0.0390    4.4310 nc        1 O40     -0.313200
      9 C9         -0.3440    0.0490    3.8040 cd        1 O40      0.278900
     10 C10         2.7530    3.6850   -8.1860 ca        1 O40     -0.136500
     11 O11         1.8590    0.0630   -1.2990 os        1 O40     -0.322900
     12 C12         3.4700   -0.0730    0.9720 c3        1 O40     -0.025100
     13 C13         3.3330    4.8540   -8.6700 ca        1 O40     -0.096500
     14 C14        -1.6810    0.0970    4.5240 c3        1 O40      0.649600
     15 C15         1.0690    0.0960   -2.4930 c3        1 O40      0.132400
     16 C16         4.5550    4.8220   -9.3470 ca        1 O40     -0.083600
     17 C17         4.0990    1.2800    0.6930 c3        1 O40     -0.076400
     18 C18         5.2010    3.5960   -9.5480 ca        1 O40     -0.096500
     19 C19         4.6490    2.4150   -9.0730 ca        1 O40     -0.136500
     20 C20         5.6010    1.1760    0.6220 c3        1 O40     -0.094100
     21 N21         2.2420   -0.3710   -6.1260 n4        1 O40     -0.606200
     22 C22         3.6020   -0.9040   -5.9050 c3        1 O40      0.083100
     23 C23         2.3430    1.1050   -6.6900 c         1 O40      0.616100
     24 N24         2.8210    1.2250   -7.9710 n         1 O40     -0.343100
     25 C26         2.0850    0.0760   -3.6290 c3        1 O40     -0.108400
     26 C29         1.4030   -0.4350   -4.8910 c3        1 O40      0.124800
     27 O30         6.3030    6.0080  -10.4450 o         1 O40     -0.794300
     28 C32         5.1960    6.1210   -9.8580 c         1 O40      0.910200
     29 O33         1.8230    1.9440   -5.9550 o         1 O40     -0.483100
     30 O34         4.5640    7.1860   -9.6420 o         1 O40     -0.794300
     31 F38        -1.9350   -1.0100    5.2920 f         1 O40     -0.220967
     32 F39        -2.7600    0.1890    3.6810 f         1 O40     -0.220967
     33 F40        -1.8140    1.1610    5.3770 f         1 O40     -0.220967
     34 C42         3.4090    2.4570   -8.3950 ca        1 O40     -0.097400
     35 H1         -0.8470    0.2280   -0.9390 ha        1 O40      0.144000
     36 H6         -1.9950    0.2330    1.2630 ha        1 O40      0.165000
     37 H10         1.7990    3.7260   -7.6410 ha        1 O40      0.123500
     38 H12         3.8680   -0.4790    1.9410 hc        1 O40      0.060700
     39 H12A        3.7570   -0.7900    0.1550 hc        1 O40      0.060700
     40 H13         2.8420    5.8340   -8.5270 ha        1 O40      0.180500
     41 H15         0.4550    1.0340   -2.5220 h1        1 O40      0.054200
     42 H15A        0.3990   -0.8040   -2.5230 h1        1 O40      0.054200
     43 H17         3.6970    1.6800   -0.2750 hc        1 O40      0.048200
     44 H17A        3.8090    2.0030    1.5000 hc        1 O40      0.048200
     45 H18         6.1630    3.6020  -10.0910 ha        1 O40      0.180500
     46 H19         5.1710    1.4620   -9.2420 ha        1 O40      0.123500
     47 H20         6.0170    0.8000    1.5880 hc        1 O40      0.036700
     48 H20A        5.9120    0.4740   -0.1890 hc        1 O40      0.036700
     49 H20B        6.0470    2.1780    0.4120 hc        1 O40      0.036700
     50 H22         4.1160   -1.0630   -6.8900 hx        1 O40      0.099033
     51 H22A        4.1940   -0.1710   -5.2910 hx        1 O40      0.099033
     52 H22B        3.5460   -1.8830   -5.3570 hx        1 O40      0.099033
     53 HN24        3.2320    0.4190   -8.4020 hn        1 O40      0.314500
     54 H26         2.4840    1.1150   -3.7840 hc        1 O40      0.088700
     55 H26A        2.9450   -0.5860   -3.3420 hc        1 O40      0.088700
     56 H29         0.4750    0.1800   -5.0860 hx        1 O40      0.097700
     57 H29A        1.1070   -1.5140   -4.7480 hx        1 O40      0.097700
     58 H211        1.7710   -0.9490   -6.8300 hn        1 O40      0.435800
@<TRIPOS>BOND
     1    1    2 ar  
     2    1    6 ar  
     3    1   35 1   
     4    2    3 ar  
     5    2   11 1   
     6    3    4 ar  
     7    3   12 1   
     8    4    5 ar  
     9    4    7 1   
    10    5    6 ar  
    11    5    9 1   
    12    6   36 1   
    13    7    8 1   
    14    8    9 2   
    15    9   14 1   
    16   10   13 ar  
    17   10   34 ar  
    18   10   37 1   
    19   11   15 1   
    20   12   17 1   
    21   12   38 1   
    22   12   39 1   
    23   13   16 ar  
    24   13   40 1   
    25   14   31 1   
    26   14   32 1   
    27   14   33 1   
    28   15   25 1   
    29   15   41 1   
    30   15   42 1   
    31   16   18 ar  
    32   16   28 1   
    33   17   20 1   
    34   17   43 1   
    35   17   44 1   
    36   18   19 ar  
    37   18   45 1   
    38   19   34 ar  
    39   19   46 1   
    40   20   47 1   
    41   20   48 1   
    42   20   49 1   
    43   21   22 1   
    44   21   23 1   
    45   21   26 1   
    46   21   58 1   
    47   22   50 1   
    48   22   51 1   
    49   22   52 1   
    50   23   24 1   
    51   23   29 2   
    52   24   34 1   
    53   24   53 1   
    54   25   26 1   
    55   25   54 1   
    56   25   55 1   
    57   26   56 1   
    58   26   57 1   
    59   27   28 1   
    60   28   30 1   
@<TRIPOS>SUBSTRUCTURE
     1 O40         1 TEMP              0 ****  ****    0 ROOT
