@<TRIPOS>MOLECULE
molecule
   72    77     1     0     0
SMALL
bcc


@<TRIPOS>ATOM
      1 O01          0.0000     0.0000     0.0000 o          1 O43      -0.608100
      2 C02          1.2150     0.0000     0.0000 c          1 O43       0.679700
      3 N03          1.8900     0.0000     1.1680 ns         1 O43      -0.552900
      4 C04          1.1570    -0.0010     2.4360 cx         1 O43       0.062700
      5 C05          1.8700     0.5700     3.6630 cx         1 O43      -0.159400
      6 C06          1.6530    -0.9390     3.5380 cx         1 O43      -0.159400
      7 C07          1.9530    -0.0050    -1.2780 ca         1 O43      -0.154600
      8 C08          1.2530    -0.0110    -2.4880 ca         1 O43      -0.086000
      9 C09          1.9360    -0.0160    -3.6710 ca         1 O43      -0.129500
     10 C10          3.3350    -0.0150    -3.6710 ca         1 O43       0.015200
     11 C11          4.0350    -0.0100    -2.4590 ca         1 O43      -0.129500
     12 C12          3.3520     0.0010    -1.2780 ca         1 O43      -0.086000
     13 C13          4.0720    -0.0220    -4.9480 cc         1 O43      -0.085300
     14 C14          3.5290     0.0740    -6.2140 cd         1 O43       0.020600
     15 N15          4.5220     0.0300    -7.0940 nd         1 O43      -0.299600
     16 C16          5.6780    -0.0890    -6.4520 cc         1 O43      -0.130300
     17 N17          5.4310    -0.1180    -5.1090 na         1 O43       0.251200
     18 N18          6.4860    -0.2330    -4.1980 nc         1 O43      -0.637800
     19 C19          7.7300    -0.3110    -4.6130 cd         1 O43       0.724200
     20 N20          8.7600    -0.4250    -3.6840 nu         1 O43      -0.906900
     21 C21          8.4520    -0.4570    -2.2520 c3         1 O43       0.244500
     22 C22          9.6670     0.0320    -1.4600 c3         1 O43      -0.095400
     23 C23          9.3470    -0.0010     0.0360 c3         1 O43      -0.076400
     24 C24          9.0090    -1.4340     0.4530 c3         1 O43      -0.084400
     25 C25          7.7950    -1.9230    -0.3390 c3         1 O43      -0.076400
     26 C26          8.1160    -1.8900    -1.8350 c3         1 O43      -0.095400
     27 C27          8.0330    -0.2820    -5.9840 cd         1 O43      -0.438300
     28 C28          7.0160    -0.1780    -6.9080 cc         1 O43       0.315600
     29 N29          7.3010    -0.1430    -8.2690 nu         1 O43      -0.785600
     30 C30          8.6880    -0.2360    -8.7300 c3         1 O43       0.234800
     31 C31          8.7230    -0.1760   -10.2590 c3         1 O43      -0.088700
     32 C32          8.2410     1.2010   -10.7280 c3         1 O43      -0.114900
     33 C33          8.3550     1.2790   -12.2530 c3         1 O43       0.138400
     34 O34          9.7070     1.0340   -12.6420 os         1 O43      -0.419600
     35 C35         10.1970    -0.2560   -12.2710 c3         1 O43       0.138400
     36 C36         10.1570    -0.3970   -10.7480 c3         1 O43      -0.114900
     37 H1           2.8900     0.0390     1.1680 hn         1 O43       0.317500
     38 H2           0.0850     0.1540     2.4220 h1         1 O43       0.124700
     39 H3           2.8840     0.9120     3.4980 hc         1 O43       0.076950
     40 H4           1.2340     1.0750     4.3800 hc         1 O43       0.076950
     41 H5           2.5350    -1.5200     3.2950 hc         1 O43       0.076950
     42 H6           0.8850    -1.3560     4.1780 hc         1 O43       0.076950
     43 H7           0.1700    -0.0110    -2.4880 ha         1 O43       0.139500
     44 H8           1.3940    -0.0200    -4.6090 ha         1 O43       0.151500
     45 H9           5.1180    -0.0070    -2.4590 ha         1 O43       0.151500
     46 H10          3.8930     0.0050    -0.3390 ha         1 O43       0.139500
     47 H11          2.4750     0.1700    -6.4490 h4         1 O43       0.188000
     48 H12          9.7120    -0.4450    -3.9920 hn         1 O43       0.450800
     49 H13          7.6050     0.1860    -2.0450 h1         1 O43       0.075700
     50 H14          9.9030     1.0480    -1.7550 hc         1 O43       0.049200
     51 H15         10.5120    -0.6140    -1.6620 hc         1 O43       0.049200
     52 H16          8.4980     0.6420     0.2370 hc         1 O43       0.044200
     53 H17         10.2080     0.3430     0.5960 hc         1 O43       0.044200
     54 H18          8.7810    -1.4560     1.5120 hc         1 O43       0.043200
     55 H19          9.8560    -2.0770     0.2470 hc         1 O43       0.043200
     56 H20          7.5580    -2.9380    -0.0440 hc         1 O43       0.044200
     57 H21          6.9490    -1.2760    -0.1380 hc         1 O43       0.044200
     58 H22          7.2550    -2.2350    -2.3950 hc         1 O43       0.049200
     59 H23          8.9650    -2.5320    -2.0350 hc         1 O43       0.049200
     60 H24          9.0630    -0.3470    -6.3140 ha         1 O43       0.145000
     61 H25          6.5560    -0.0840    -8.9350 hn         1 O43       0.463800
     62 H26          9.1170    -1.1730    -8.3960 h1         1 O43       0.047200
     63 H27          9.2590     0.5890    -8.3230 h1         1 O43       0.047200
     64 H28          8.0790    -0.9430   -10.6720 hc         1 O43       0.059700
     65 H29          7.2080     1.3410   -10.4360 hc         1 O43       0.054950
     66 H30          8.8580     1.9710   -10.2800 hc         1 O43       0.054950
     67 H31          8.0580     2.2670   -12.5860 h1         1 O43       0.049200
     68 H32          7.7100     0.5330   -12.7010 h1         1 O43       0.049200
     69 H33         11.2170    -0.3670   -12.6170 h1         1 O43       0.049200
     70 H34          9.5730    -1.0200   -12.7200 h1         1 O43       0.049200
     71 H35         10.8090     0.3440   -10.3000 hc         1 O43       0.054950
     72 H36         10.4840    -1.3910   -10.4690 hc         1 O43       0.054950
@<TRIPOS>BOND
     1     6     5 1
     2     6     4 1
     3     5     4 1
     4     4     3 1
     5     3     2 1
     6     1     2 2
     7     2     7 1
     8     7     8 ar
     9     7    12 ar
    10     8     9 ar
    11    12    11 ar
    12    24    25 1
    13    24    23 1
    14     9    10 ar
    15    25    26 1
    16    11    10 ar
    17    26    21 1
    18    10    13 1
    19    23    22 1
    20    22    21 1
    21    21    20 1
    22    13    17 1
    23    13    14 2
    24    18    17 1
    25    18    19 2
    26    20    19 1
    27    17    16 1
    28    14    15 1
    29    19    27 1
    30    16    15 2
    31    16    28 1
    32    27    28 2
    33    28    29 1
    34    29    30 1
    35    30    31 1
    36    31    36 1
    37    31    32 1
    38    36    35 1
    39    32    33 1
    40    35    34 1
    41    33    34 1
    42     3    37 1
    43     4    38 1
    44     5    39 1
    45     5    40 1
    46     6    41 1
    47     6    42 1
    48     8    43 1
    49     9    44 1
    50    11    45 1
    51    12    46 1
    52    14    47 1
    53    20    48 1
    54    21    49 1
    55    22    50 1
    56    22    51 1
    57    23    52 1
    58    23    53 1
    59    24    54 1
    60    24    55 1
    61    25    56 1
    62    25    57 1
    63    26    58 1
    64    26    59 1
    65    27    60 1
    66    29    61 1
    67    30    62 1
    68    30    63 1
    69    31    64 1
    70    32    65 1
    71    32    66 1
    72    33    67 1
    73    33    68 1
    74    35    69 1
    75    35    70 1
    76    36    71 1
    77    36    72 1
@<TRIPOS>SUBSTRUCTURE
     1 O43         1 TEMP              0 ****  ****    0 ROOT
