@<TRIPOS>MOLECULE
O43
   72    77     1     0     0
SMALL
bcc


@<TRIPOS>ATOM
      1 O01          0.0000     0.0000     0.0000 o          1 O43      -0.650100
      2 C02          1.2150     0.0000     0.0000 c          1 O43       0.600700
      3 N03          1.8900     0.0000     1.1680 ns         1 O43      -0.148900
      4 C04          1.1570    -0.0010     2.4360 cx         1 O43      -0.042300
      5 C05          1.8700     0.5700     3.6630 cx         1 O43      -0.096900
      6 C06          1.6530    -0.9390     3.5380 cx         1 O43      -0.096900
      7 C07          1.9530    -0.0050    -1.2780 ca         1 O43      -0.172600
      8 C08          1.2530    -0.0110    -2.4880 ca         1 O43      -0.053500
      9 C09          1.9360    -0.0160    -3.6710 ca         1 O43      -0.123500
     10 C10          3.3350    -0.0150    -3.6710 ca         1 O43       0.041200
     11 C11          4.0350    -0.0100    -2.4590 ca         1 O43      -0.123500
     12 C12          3.3520     0.0010    -1.2780 ca         1 O43      -0.053500
     13 C13          4.0720    -0.0220    -4.9480 cc         1 O43      -0.302300
     14 C14          3.5290     0.0740    -6.2140 cd         1 O43       0.026600
     15 N15          4.5220     0.0300    -7.0940 nd         1 O43      -0.226600
     16 C16          5.6780    -0.0890    -6.4520 cc         1 O43      -0.357300
     17 N17          5.4310    -0.1180    -5.1090 na         1 O43       0.797200
     18 N18          6.4860    -0.2330    -4.1980 nc         1 O43      -0.807800
     19 C19          7.7300    -0.3110    -4.6130 cd         1 O43       0.632200
     20 N20          8.7600    -0.4250    -3.6840 nu         1 O43      -0.487900
     21 C21          8.4520    -0.4570    -2.2520 c3         1 O43       0.131500
     22 C22          9.6670     0.0320    -1.4600 c3         1 O43      -0.040400
     23 C23          9.3470    -0.0010     0.0360 c3         1 O43      -0.017400
     24 C24          9.0090    -1.4340     0.4530 c3         1 O43      -0.028400
     25 C25          7.7950    -1.9230    -0.3390 c3         1 O43      -0.017400
     26 C26          8.1160    -1.8900    -1.8350 c3         1 O43      -0.040400
     27 C27          8.0330    -0.2820    -5.9840 cd         1 O43      -0.473300
     28 C28          7.0160    -0.1780    -6.9080 cc         1 O43       0.198600
     29 N29          7.3010    -0.1430    -8.2690 nu         1 O43      -0.359600
     30 C30          8.6880    -0.2360    -8.7300 c3         1 O43       0.152800
     31 C31          8.7230    -0.1760   -10.2590 c3         1 O43      -0.059700
     32 C32          8.2410     1.2010   -10.7280 c3         1 O43      -0.066400
     33 C33          8.3550     1.2790   -12.2530 c3         1 O43       0.216400
     34 O34          9.7070     1.0340   -12.6420 os         1 O43      -0.406600
     35 C35         10.1970    -0.2560   -12.2710 c3         1 O43       0.216400
     36 C36         10.1570    -0.3970   -10.7480 c3         1 O43      -0.066400
     37 H1           2.8900     0.0390     1.1680 hn         1 O43       0.175500
     38 H2           0.0850     0.1540     2.4220 h1         1 O43       0.097700
     39 H3           2.8840     0.9120     3.4980 hc         1 O43       0.047200
     40 H4           1.2340     1.0750     4.3800 hc         1 O43       0.047200
     41 H5           2.5350    -1.5200     3.2950 hc         1 O43       0.047200
     42 H6           0.8850    -1.3560     4.1780 hc         1 O43       0.047200
     43 H7           0.1700    -0.0110    -2.4880 ha         1 O43       0.112000
     44 H8           1.3940    -0.0200    -4.6090 ha         1 O43       0.128000
     45 H9           5.1180    -0.0070    -2.4590 ha         1 O43       0.128000
     46 H10          3.8930     0.0050    -0.3390 ha         1 O43       0.112000
     47 H11          2.4750     0.1700    -6.4490 h4         1 O43       0.147000
     48 H12          9.7120    -0.4450    -3.9920 hn         1 O43       0.295800
     49 H13          7.6050     0.1860    -2.0450 h1         1 O43       0.058700
     50 H14          9.9030     1.0480    -1.7550 hc         1 O43       0.021200
     51 H15         10.5120    -0.6140    -1.6620 hc         1 O43       0.021200
     52 H16          8.4980     0.6420     0.2370 hc         1 O43       0.015450
     53 H17         10.2080     0.3430     0.5960 hc         1 O43       0.015450
     54 H18          8.7810    -1.4560     1.5120 hc         1 O43       0.014700
     55 H19          9.8560    -2.0770     0.2470 hc         1 O43       0.014700
     56 H20          7.5580    -2.9380    -0.0440 hc         1 O43       0.015450
     57 H21          6.9490    -1.2760    -0.1380 hc         1 O43       0.015450
     58 H22          7.2550    -2.2350    -2.3950 hc         1 O43       0.021200
     59 H23          8.9650    -2.5320    -2.0350 hc         1 O43       0.021200
     60 H24          9.0630    -0.3470    -6.3140 ha         1 O43       0.139000
     61 H25          6.5560    -0.0840    -8.9350 hn         1 O43       0.316800
     62 H26          9.1170    -1.1730    -8.3960 h1         1 O43       0.023700
     63 H27          9.2590     0.5890    -8.3230 h1         1 O43       0.023700
     64 H28          8.0790    -0.9430   -10.6720 hc         1 O43       0.036700
     65 H29          7.2080     1.3410   -10.4360 hc         1 O43       0.027200
     66 H30          8.8580     1.9710   -10.2800 hc         1 O43       0.027200
     67 H31          8.0580     2.2670   -12.5860 h1         1 O43       0.009700
     68 H32          7.7100     0.5330   -12.7010 h1         1 O43       0.009700
     69 H33         11.2170    -0.3670   -12.6170 h1         1 O43       0.009700
     70 H34          9.5730    -1.0200   -12.7200 h1         1 O43       0.009700
     71 H35         10.8090     0.3440   -10.3000 hc         1 O43       0.027200
     72 H36         10.4840    -1.3910   -10.4690 hc         1 O43       0.027200
@<TRIPOS>BOND
     1     1     2 2   
     2     2     3 1   
     3     2     7 1   
     4     3     4 1   
     5     3    37 1   
     6     4     5 1   
     7     4     6 1   
     8     4    38 1   
     9     5     6 1   
    10     5    39 1   
    11     5    40 1   
    12     6    41 1   
    13     6    42 1   
    14     7     8 ar  
    15     7    12 ar  
    16     8     9 ar  
    17     8    43 1   
    18     9    10 ar  
    19     9    44 1   
    20    10    11 ar  
    21    10    13 1   
    22    11    12 ar  
    23    11    45 1   
    24    12    46 1   
    25    13    14 2   
    26    13    17 1   
    27    14    15 1   
    28    14    47 1   
    29    15    16 2   
    30    16    17 1   
    31    16    28 1   
    32    17    18 1   
    33    18    19 2   
    34    19    20 1   
    35    19    27 1   
    36    20    21 1   
    37    20    48 1   
    38    21    22 1   
    39    21    26 1   
    40    21    49 1   
    41    22    23 1   
    42    22    50 1   
    43    22    51 1   
    44    23    24 1   
    45    23    52 1   
    46    23    53 1   
    47    24    25 1   
    48    24    54 1   
    49    24    55 1   
    50    25    26 1   
    51    25    56 1   
    52    25    57 1   
    53    26    58 1   
    54    26    59 1   
    55    27    28 2   
    56    27    60 1   
    57    28    29 1   
    58    29    30 1   
    59    29    61 1   
    60    30    31 1   
    61    30    62 1   
    62    30    63 1   
    63    31    32 1   
    64    31    36 1   
    65    31    64 1   
    66    32    33 1   
    67    32    65 1   
    68    32    66 1   
    69    33    34 1   
    70    33    67 1   
    71    33    68 1   
    72    34    35 1   
    73    35    36 1   
    74    35    69 1   
    75    35    70 1   
    76    36    71 1   
    77    36    72 1   
@<TRIPOS>SUBSTRUCTURE
     1 O43         1 TEMP              0 ****  ****    0 ROOT
