@<TRIPOS>MOLECULE
molecule
   65    69     1     0     0
SMALL
bcc


@<TRIPOS>ATOM
      1 OBJ          0.0000     0.0000     0.0000 o          1 O44      -0.614800
      2 SBH          1.4210     0.0000     0.0000 sy         1 O44       1.517000
      3 OBI          2.1980     0.0000     1.1900 o          1 O44      -0.614800
      4 CBE          1.9190    -1.4190    -0.9190 ca         1 O44      -0.294500
      5 CBD          1.2730    -2.6260    -0.7300 ca         1 O44      -0.031000
      6 CBC          1.6640    -3.7390    -1.4510 ca         1 O44      -0.145000
      7 CBF          2.9520    -1.3220    -1.8320 ca         1 O44      -0.031000
      8 CBG          3.3420    -2.4350    -2.5530 ca         1 O44      -0.145000
      9 CBB          2.7000    -3.6440    -2.3610 ca         1 O44      -0.018300
     10 CBA          3.1260    -4.8570    -3.1470 c3         1 O44       0.185100
     11 NAX          4.1740    -5.5760    -2.4090 n3         1 O44      -0.716600
     12 CAY          4.4470    -6.8830    -3.0220 c3         1 O44       0.136800
     13 CAZ          5.4840    -7.6310    -2.1810 c3         1 O44       0.099800
     14 CAW          5.4010    -4.7720    -2.3210 c3         1 O44       0.136800
     15 CAV          6.4380    -5.5210    -1.4790 c3         1 O44       0.099800
     16 NAA          6.7110    -6.8280    -2.0920 nh         1 O44      -0.629300
     17 C2           7.6980    -7.5050    -1.3960 ca         1 O44       0.896900
     18 N3           8.0750    -8.7040    -1.8160 nb         1 O44      -0.794000
     19 N1           8.2430    -6.9350    -0.3350 nb         1 O44      -0.809000
     20 C6           9.1970    -7.5550     0.3610 ca         1 O44       0.456800
     21 CAQ          9.8010    -6.9080     1.5520 c          1 O44       0.565600
     22 NAR          9.3870    -5.6840     1.9370 ns         1 O44      -0.568900
     23 CAS          9.9840    -5.0450     3.1120 c3         1 O44       0.171100
     24 CAT          9.3660    -3.7260     3.3210 c1         1 O44      -0.139100
     25 CBL          8.8900    -2.6640     3.4790 c1         1 O44      -0.109500
     26 OAU         10.6690    -7.4810     2.1800 o          1 O44      -0.612100
     27 C5           9.6160    -8.8170    -0.0440 ca         1 O44      -0.420600
     28 C4           9.0180    -9.3840    -1.1760 ca         1 O44       0.738200
     29 NAH          9.4060   -10.6380    -1.6220 nu         1 O44      -0.747300
     30 CAI          8.7350   -11.2380    -2.6840 cc         1 O44       0.196300
     31 CAJ          7.7690   -10.6630    -3.4540 cd         1 O44      -0.377300
     32 NAP          8.9280   -12.5000    -3.1460 na         1 O44      -0.092600
     33 NAO          8.0520   -12.7020    -4.2210 nc         1 O44      -0.551800
     34 CAK          7.3610   -11.6050    -4.4030 cd         1 O44       0.381600
     35 CAL          6.3070   -11.3930    -5.4580 cx         1 O44      -0.150000
     36 CAN          6.7390   -10.7300    -6.7680 cx         1 O44      -0.139900
     37 CAM          5.8900    -9.9530    -5.7610 cx         1 O44      -0.139900
     38 H3           0.6820    -2.7280     0.1720 ha         1 O44       0.152000
     39 H4           1.5490    -4.8140    -1.3700 ha         1 O44       0.149000
     40 H5           3.6150    -0.5650    -2.2330 ha         1 O44       0.152000
     41 H6           4.2750    -2.3520    -3.0980 ha         1 O44       0.149000
     42 H7           2.3380    -5.5610    -3.3850 h1         1 O44       0.063200
     43 H8           3.8750    -4.7340    -3.9200 h1         1 O44       0.063200
     44 H10          3.6430    -7.5650    -3.2710 h1         1 O44       0.054200
     45 H11          4.9610    -6.7610    -3.9680 h1         1 O44       0.054200
     46 H12          4.7450    -7.8670    -1.4250 h1         1 O44       0.076200
     47 H13          6.0680    -8.4470    -2.5900 h1         1 O44       0.076200
     48 H14          5.9920    -4.9620    -3.2080 h1         1 O44       0.054200
     49 H15          5.8270    -3.8420    -1.9650 h1         1 O44       0.054200
     50 H16          7.4720    -5.2120    -1.5690 h1         1 O44       0.076200
     51 H17          6.1200    -5.1510    -0.5120 h1         1 O44       0.076200
     52 H18          8.6720    -5.2260     1.4080 hn         1 O44       0.336500
     53 H19          9.8500    -5.8810     3.7890 h1         1 O44       0.077200
     54 H20         11.0340    -5.2690     2.9680 h1         1 O44       0.077200
     55 H21          8.5030    -1.7420     3.8950 ha         1 O44       0.174500
     56 H22         10.4490    -9.0890     0.5920 ha         1 O44       0.187000
     57 H23         10.2100   -10.9040    -1.0870 hn         1 O44       0.469800
     58 H24          7.3760    -9.7880    -2.9510 ha         1 O44       0.221000
     59 H25          9.4470   -13.3520    -3.0700 hn         1 O44       0.341700
     60 H26          5.7400   -12.3150    -5.4980 hc         1 O44       0.103700
     61 H27          7.6600   -10.2980    -6.3950 hc         1 O44       0.085450
     62 H28          6.5140   -11.0160    -7.7880 hc         1 O44       0.085450
     63 H29          4.9630    -9.4430    -5.5240 hc         1 O44       0.085450
     64 H30          6.7930    -9.3660    -5.6480 hc         1 O44       0.085450
     65 F1           1.8750     1.2960    -0.8400 f          1 O44      -0.266900
@<TRIPOS>BOND
     1    37    35 1
     2    37    36 1
     3    35    34 1
     4    35    36 1
     5    33    34 2
     6    33    32 1
     7    34    31 1
     8    32    30 1
     9    31    30 2
    10     2     3 2
    11     2     1 2
    12     2     4 1
    13    30    29 1
    14     7     4 ar
    15     7     8 ar
    16     4     5 ar
    17    29    28 1
    18     8     9 ar
    19    28    18 ar
    20    28    27 ar
    21    18    17 ar
    22     5     6 ar
    23    14    15 1
    24    14    11 1
    25    27    20 ar
    26     9     6 ar
    27     9    10 1
    28    15    16 1
    29    17    16 1
    30    17    19 ar
    31    10    11 1
    32    20    19 ar
    33    20    21 1
    34    16    13 1
    35    26    21 2
    36    11    12 1
    37    12    13 1
    38    21    22 1
    39    22    23 1
    40    23    24 1
    41    24    25 3
    42     5    38 1
    43     6    39 1
    44     7    40 1
    45     8    41 1
    46    10    42 1
    47    10    43 1
    48    12    44 1
    49    12    45 1
    50    13    46 1
    51    13    47 1
    52    14    48 1
    53    14    49 1
    54    15    50 1
    55    15    51 1
    56    22    52 1
    57    23    53 1
    58    23    54 1
    59    25    55 1
    60    27    56 1
    61    29    57 1
    62    31    58 1
    63    32    59 1
    64    35    60 1
    65    36    61 1
    66    36    62 1
    67    37    63 1
    68    37    64 1
    69     2    65 1
@<TRIPOS>SUBSTRUCTURE
     1 O44         1 TEMP              0 ****  ****    0 ROOT
